33

Li     0.699923     1.548524     0.773894
Li    -1.740865     0.789941     0.258243
Li     1.598319    -0.051082    -1.078924
Li    -0.396635     0.729794    -1.449491
Li    -1.608881    -0.035739     1.000347
Li     1.660405    -0.859157    -0.308830
Li    -0.381142    -1.652299     0.087437
Li     0.085691     1.463242    -0.706331
Li     0.552049    -0.211492     1.511601
Li    -1.742345    -0.289682    -0.082751
Li     0.931711    -0.963183    -1.153570
Li    -0.098110    -1.361282    -0.955000
Li    -1.123080    -1.103128    -0.544553
Li     1.698803     0.211375     0.016144
Li    -0.979916     0.886050     1.088830
Li     0.106934     0.798266     1.343731
Li     1.140138     0.538038     0.929987
Li     0.712077     0.609829    -1.174141
Li    -0.969029     1.033240    -0.500947
Li    -0.997800    -0.845777     0.543370
Li     0.640334    -1.258365    -0.112616
Li     1.107699    -0.535219     0.602355
Li    -0.528672    -0.123075     1.257635
Li     0.085402    -0.929801     0.798074
Li     0.047916    -0.302841    -1.248215
Li    -0.971921    -0.045980    -0.839824
Li     0.820660     0.870050    -0.084189
Li    -0.217485     1.131522     0.331534
Li    -0.080321     0.431375    -0.471896
Li     0.770807    -0.202361    -0.389403
Li    -0.827027     0.200077     0.250445
Li    -0.227862    -0.591897    -0.196741
Li     0.232227     0.121033     0.503794
33

Li    -0.190346     0.363323     0.678623
Li     0.293115    -0.907506    -1.723402
Li     0.720332     1.188136    -0.643465
Li    -0.071300     1.528266    -0.185992
Li     0.356571    -0.636094    -0.394323
Li     0.232332     0.232752     0.026789
Li     0.108484    -0.620133     0.279330
Li    -1.260296     0.785748     1.006561
Li     0.685384     0.456973     0.821719
Li     0.845397    -0.904667     1.164482
Li    -0.979375     0.768836    -0.294917
Li    -1.472722     0.232789    -1.179427
Li    -0.910416     1.343861     0.728637
Li     1.049792     1.146292     0.264732
Li     0.759681     0.333218    -1.101635
Li     1.397922    -0.641814    -1.028737
Li    -1.804529    -0.132671    -0.166479
Li     1.355083     0.405282    -0.663598
Li    -1.164270    -0.364048     0.901493
Li     0.996672    -0.433686     0.287600
Li    -1.158639    -0.808023    -0.629489
Li    -0.172505    -0.059280     1.314941
Li     1.598373     0.437861     0.649330
Li    -0.655902    -1.281091    -0.000736
Li    -0.667508    -0.109215    -0.381914
Li    -0.371105    -1.394840    -1.132072
Li    -0.314781    -0.322113    -1.329459
Li     0.246700     1.259773     0.969594
Li     0.620223    -1.750295    -1.039150
Li    -0.219269     0.828460    -0.881425
Li    -0.431943    -1.429310     1.226614
Li     0.607889    -1.297098     0.267600
Li    -0.717406     0.628078     1.600446
