412

Li    0.321394    -0.257207     0.567316
Li    0.317289    -0.254270     1.590418
Li    0.601788    -1.129824     1.020991
Li   -0.422235    -0.794492     1.022201
Li   -0.420759     0.282208     1.023433
Li    0.602850     0.616061     1.022284
Li    1.237741    -0.254612     1.021423
Li    0.037332    -1.127598     0.107132
Li   -0.592297    -0.254935     0.106730
Li    0.037055     0.611189     0.106836
Li    1.061542     0.281893     0.107562
Li    1.061135    -0.794438     0.105564
Li    0.318503    -0.254997    -0.456023
Li    0.311816    -0.250370     2.637017
Li    0.887780     1.512778     1.482463
Li    2.175126    -0.251021     1.484296
Li    0.887712    -2.022688     1.483442
Li   -1.187119    -1.342283     1.482417
Li   -1.182327     0.835752     1.484447
Li    1.814960     0.834839    -0.366777
Li    1.815301    -1.342019    -0.372642
Li   -0.256039    -2.014899    -0.368064
Li   -1.524727    -0.249999    -0.367236
Li   -0.255504     1.496587    -0.367218
Li    0.311985    -0.249918    -1.502101
Li    0.604258     0.642213     2.078916
Li    1.254816    -0.250813     2.078442
Li    0.603420    -1.147246     2.078055
Li   -0.446733    -0.804044     2.078842
Li   -0.444996     0.299812     2.080272
Li    1.547004     0.642003     1.496307
Li    1.546272    -1.147591     1.495358
Li   -0.155436    -1.700763     1.495819
Li   -1.200471    -0.252865     1.497034
Li   -0.152536     1.189088     1.497013
Li    1.365916     1.188867     0.558911
Li    0.316506     1.520953     0.557910
Li    2.017247     0.298974     0.559000
Li    2.016874    -0.804303     0.556450
Li    1.365499    -1.700669     0.556063
Li    0.315991    -2.042255     0.557887
Li   -0.731221    -1.696923     0.558569
Li   -1.371309    -0.801346     0.557933
Li   -1.370054     0.297128     0.558315
Li   -0.728014     1.180606     0.558343
Li    1.834374    -0.252945    -0.378022
Li    0.785136    -1.696765    -0.378352
Li   -0.902914    -1.140538    -0.375961
Li   -0.903980     0.633340    -0.375804
Li    0.783350     1.180092    -0.375606
Li    1.070327     0.296887    -0.949505
Li    1.070956    -0.801065    -0.950988
Li    0.026201    -1.140499    -0.949997
Li   -0.616419    -0.251654    -0.950871
Li    0.026340     0.633193    -0.950767
Li    0.307289    -0.247184     3.707930
Li    1.174331     2.432384     1.945262
Li    3.131042    -0.248057     1.957390
Li    1.179987    -2.932898     1.956202
Li   -1.973301    -1.898714     1.945292
Li   -1.962623     1.402921     1.946672
Li    2.578303     1.400410    -0.855536
Li    2.581290    -1.898181    -0.868623
Li   -0.559399    -2.915372    -0.859404
Li   -2.473940    -0.244418    -0.850544
Li   -0.553899     2.397676    -0.850643
Li    0.304512    -0.244165    -2.567302
Li    0.602050     0.657257     3.145302
Li    1.260513    -0.247123     3.145981
Li    0.601566    -1.153902     3.145637
Li   -0.461808    -0.806722     3.145229
Li   -0.460172     0.310771     3.146176
Li    0.893014     1.556122     2.556277
Li    2.207142    -0.247390     2.560659
Li    0.894131    -2.054277     2.559891
Li   -1.226786    -1.360855     2.556241
Li   -1.221876     0.864497     2.557557
Li    1.563884     0.664124     2.577297
Li    1.563999    -1.160540     2.577904
Li   -0.171329    -1.723750     2.576851
Li   -1.237994    -0.248274     2.576378
Li   -0.168558     1.223352     2.576356
Li    1.845860     1.555877     1.967622
Li    2.501808    -1.154347     1.971190
Li    0.125345    -2.613464     1.970399
Li   -1.988167    -0.800394     1.965919
Li   -0.924852     1.763838     1.966080
Li    2.501614     0.656622     1.971283
Li    1.847672    -2.054463     1.970800
Li   -0.932306    -2.267087     1.967223
Li   -1.985534     0.304384     1.966163
Li    0.125116     2.107431     1.965740
Li    2.338282     1.222590     1.027757
Li    2.339503    -1.723741     1.025692
Li   -0.463093    -2.632571     1.026915
Li   -2.170352    -0.247559     1.022217
Li   -0.456769     2.110019     1.022055
Li    1.661931     2.107087     1.016355
Li    0.599691     2.437397     1.014599
Li    2.977139     0.309529     1.022498
Li    2.977076    -0.807149     1.020209
Li    1.664582    -2.613296     1.019452
Li    0.602210    -2.958621     1.020893
Li   -1.513196    -2.261868     1.016229
Li   -2.155607    -1.353273     1.014938
Li   -2.150283     0.858173     1.015185
Li   -1.502412     1.749593     1.015186
Li    2.131573     1.763524     0.077818
Li    0.020853     2.427302     0.078368
Li    2.792156     0.862614     0.078965
Li    2.793354    -1.360777     0.072537
Li    2.134982    -2.266729     0.072202
Li    0.018780    -2.953473     0.076469
Li   -1.040959    -2.602253     0.077407
Li   -2.324759    -0.799770     0.078659
Li   -2.322918     0.307594     0.078362
Li   -1.032100     2.083713     0.078338
Li    1.078220     2.109555     0.073365
Li    2.816284    -0.248787     0.071696
Li    1.084238    -2.632378     0.070886
Li   -1.695980    -1.707350     0.073614
Li   -1.693347     1.207131     0.074176
Li    2.605699     0.304241    -0.870414
Li    1.544575    -2.261380    -0.873013
Li   -1.210324    -2.034494    -0.864517
Li   -1.852703     0.646604    -0.861854
Li    0.490730     2.083122    -0.863019
Li    2.606448    -0.800063    -0.872650
Li    0.493764    -2.602019    -0.870822
Li   -1.852247    -1.140905    -0.862904
Li   -1.209624     1.531611    -0.861819
Li    1.538530     1.747836    -0.863876
Li    1.067549     0.307897    -2.016546
Li    1.069173    -0.799093    -2.018137
Li    0.015633    -1.140728    -2.016926
Li   -0.632054    -0.245905    -2.016840
Li    0.015924     0.646496    -2.016803
Li    1.827689     0.857904    -1.442148
Li    1.831028    -1.352419    -1.447983
Li   -0.272831    -2.034403    -1.443700
Li   -1.562697    -0.245903    -1.441804
Li   -0.271607     1.531403    -1.441798
Li    1.843868    -0.246911    -1.457854
Li    0.783442    -1.706898    -1.458178
Li   -0.928224    -1.147539    -1.455915
Li   -0.927626     0.650368    -1.454283
Li    0.781691     1.206648    -1.455645
Li    0.601871     0.669326     4.232105
Li    1.266419    -0.245132     4.234134
Li    0.601393    -1.160385     4.233791
Li   -0.473381    -0.810421     4.232049
Li   -0.471868     0.319170     4.232368
Li    0.896560     1.583772     3.643181
Li    2.226702    -0.245165     3.650115
Li    0.897925    -2.073707     3.649395
Li   -1.252043    -1.372968     3.643140
Li   -1.248353     0.883664     3.642913
Li    1.574600     0.677982     3.666564
Li    1.574791    -1.168496     3.668148
Li   -0.181327    -1.738375     3.666131
Li   -1.263446    -0.245100     3.663662
Li   -0.179568     1.246495     3.663633
Li    1.185301     2.490830     3.035316
Li    3.176780    -0.245650     3.052287
Li    1.191769    -2.977229     3.051198
Li   -2.025521    -1.927502     3.035322
Li   -2.017322     1.442659     3.033456
Li    1.868302     1.592581     3.068980
Li    2.535006    -1.168262     3.074844
Li    0.115692    -2.650817     3.072878
Li   -2.040787    -0.806074     3.063612
Li   -0.954435     1.809709     3.063365
Li    2.534109     0.677214     3.073711
Li    1.871072    -2.081897     3.074474
Li   -0.960397    -2.299981     3.068568
Li   -2.038261     0.318270     3.063443
Li    0.114079     2.159246     3.063446
Li    2.144281     2.490501     2.442992
Li    3.474100    -1.160970     2.457461
Li    0.414123    -3.540991     2.455629
Li   -2.793519    -1.354684     2.435643
Li   -1.712207     2.350378     2.434924
Li    2.816448     1.582873     2.457171
Li    2.820522    -2.073809     2.461704
Li   -0.658358    -3.198852     2.456374
Li   -2.801118    -0.242507     2.439689
Li   -0.656421     2.708522     2.439392
Li    3.472849     0.668246     2.456798
Li    2.154110    -2.977317     2.456712
Li   -1.729110    -2.839475     2.442610
Li   -2.786459     0.872290     2.435023
Li    0.403705     3.044705     2.435218
Li    3.125368     1.809038     0.542660
Li    3.132524    -2.299648     0.540186
Li   -0.776973    -3.562421     0.541822
Li   -3.140401    -0.241387     0.536257
Li   -0.761930     3.030770     0.535964
Li    2.648486     2.158356     1.497883
Li    3.318353    -1.737811     1.504599
Li   -0.182348    -3.569312     1.503606
Li   -2.971180    -0.799741     1.480545
Li   -1.237370     2.695002     1.480371
Li    3.315657     1.244728     1.504775
Li    2.655025    -2.650592     1.504222
Li   -1.257248    -3.216407     1.497302
Li   -2.967716     0.314484     1.480569
Li   -0.178448     3.042276     1.480060
Li    1.958089     3.044089     1.475097
Li    0.882394     3.370390     1.470440
Li    3.952972     0.317998     1.497183
Li    3.953249    -0.810870     1.495767
Li    1.969491    -3.540793     1.494701
Li    0.895478    -3.889340     1.495373
Li   -2.313106    -2.832846     1.475085
Li   -2.955845    -1.909825     1.471168
Li   -2.943610     1.425683     1.471364
Li   -2.286986     2.329087     1.471387
Li    2.435481     2.707982     0.528626
Li    0.301000     3.360981     0.529906
Li    3.774996     0.881414     0.541297
Li    3.776598    -1.372963     0.536692
Li    2.450004    -3.198466     0.535971
Li    0.304256    -3.893899     0.538328
Li   -1.845461    -3.183107     0.528878
Li   -3.126496    -1.354041     0.530627
Li   -3.119245     0.872341     0.530802
Li   -1.814955     2.666880     0.530782
Li    1.364858     3.041564     0.525859
Li    3.799866    -0.245902     0.536274
Li    1.385105    -3.569092     0.535160
Li   -2.494250    -2.267325     0.526920
Li   -2.482578     1.780834     0.529195
Li    2.902661     2.351776    -0.418420
Li   -0.279820     3.343382    -0.408761
Li    3.575413     1.438076    -0.415040
Li    3.579415    -1.927171    -0.427328
Li    2.916782    -2.838918    -0.427713
Li   -0.289158    -3.875398    -0.422235
Li   -1.359972    -3.517308    -0.417318
Li   -3.288994    -0.796643    -0.408356
Li   -3.286151     0.316154    -0.408193
Li   -1.337655     2.997226    -0.408243
Li    1.837889     2.693505    -0.421593
Li    3.609994     0.317304    -0.426592
Li    1.860418    -3.215925    -0.428986
Li   -2.017317    -2.610142    -0.419844
Li   -2.658159     1.224183    -0.414420
Li    0.780842     3.030057    -0.417973
Li    3.611531    -0.806088    -0.428229
Li    0.791164    -3.562190    -0.427067
Li   -2.663635    -1.708550    -0.417103
Li   -2.007507     2.119530    -0.414387
Li    3.383292     0.872462    -1.379641
Li    2.313044    -2.831999    -1.383246
Li   -1.526465    -2.935410    -1.362486
Li   -2.811848     0.657127    -1.351646
Li    0.192620     2.996520    -1.354387
Li    3.393903    -0.241949    -1.388136
Li    1.257704    -3.182511    -1.388426
Li   -2.173194    -2.039057    -1.361034
Li   -2.169694     1.553067    -1.355346
Li    1.246243     2.664853    -1.361555
Li    3.387000    -1.354000    -1.382604
Li    0.194375    -3.517044    -1.377632
Li   -2.813166    -1.139439    -1.354046
Li   -1.515922     2.440616    -1.351575
Li    2.297462     2.321860    -1.362119
Li    1.063352     0.316749    -3.095682
Li    1.065094    -0.795777    -3.098350
Li    0.006396    -1.139168    -3.096060
Li   -0.644726    -0.240550    -3.093782
Li    0.006808     0.657058    -3.093838
Li    1.828299     0.873495    -2.525570
Li    1.832539    -1.352639    -2.532933
Li   -0.285891    -2.038842    -2.526991
Li   -1.586699    -0.241124    -2.521208
Li   -0.284106     1.552786    -2.521287
Li    1.843340    -0.239966    -2.542802
Li    0.777772    -1.707831    -2.543129
Li   -0.945897    -1.147598    -2.537370
Li   -0.944708     0.662624    -2.534499
Li    0.775915     1.223928    -2.537284
Li    2.588191     1.427090    -1.943540
Li    2.597500    -1.908328    -1.959549
Li   -0.576356    -2.935313    -1.949418
Li   -2.520164    -0.240535    -1.934947
Li   -0.572649     2.440386    -1.935045
Li    2.610144     0.316716    -1.966005
Li    1.546413    -2.266308    -1.969340
Li   -1.238549    -2.047624    -1.958553
Li   -1.886123     0.662718    -1.952622
Li    0.485114     2.118901    -1.955739
Li    2.612371    -0.797992    -1.969014
Li    0.486271    -2.609623    -1.966501
Li   -1.887463    -1.147626    -1.955631
Li   -1.235692     1.558148    -1.952593
Li    1.540753     1.779941    -1.958390
Li    1.460961     3.388413     2.408467
Li    4.115341    -0.246362     2.446722
Li    1.482255    -3.869687     2.445265
Li   -2.794143    -2.466553     2.408500
Li   -2.775033     1.993406     2.401074
Li    3.355628     1.980580    -1.359741
Li    3.362949    -2.465835    -1.395415
Li   -0.882715    -3.829996    -1.382985
Li   -3.439105    -0.239304    -1.341086
Li   -0.856883     3.314073    -1.341205
Li    0.297618    -0.239005    -3.649973
Li   -4.432824    -0.235246    -1.844266
Li   -1.167815     4.258047    -1.844293
Li    0.292137    -0.235080    -4.763896
Li   -4.121503    -0.236351     0.048582
Li   -1.069636     3.962356     0.048268
Li   -3.961086    -0.798344     0.995216
Li   -1.551946     3.633010     0.994933
Li   -3.957055     0.324277     0.995191
Li   -0.485122     3.983361     0.994549
Li   -3.786927    -1.361089     1.944775
Li   -2.029112     3.291151     1.944159
Li   -3.793154    -0.238753     1.945139
Li   -0.965550     3.651057     1.944617
Li   -3.779116     0.883844     1.944298
Li    0.104022     3.991630     1.943858
Li    0.585233     4.311688     0.988150
Li   -3.943207    -1.917482     0.989264
Li   -3.928708     1.446426     0.991235
Li   -2.610721     3.259684     0.991290
Li    1.654956     3.990426     0.984694
Li   -3.307716    -2.835754     0.986574
Li   -3.282540     2.362342     0.995883
Li   -0.000100     4.297601     0.042272
Li   -4.110374    -1.356888     0.043006
Li   -4.101781     0.885820     0.044838
Li   -2.131122     3.597266     0.044856
Li    2.133088     3.649105     0.027566
Li   -2.835541    -3.185526     0.030367
Li   -3.465759     1.804619     0.041760
Li    1.068662     3.982493     0.033639
Li   -3.480900    -2.275989     0.035071
Li   -2.808754     2.708655     0.041819
Li   -0.583683     4.277235    -0.900514
Li   -4.270984    -0.796149    -0.900187
Li   -4.267450     0.324681    -0.898923
Li   -1.648840     3.927938    -0.898917
Li    2.605473     3.288318    -0.924864
Li   -2.346163    -3.525717    -0.921019
Li   -3.634061     1.239468    -0.905537
Li    1.544993     3.631248    -0.920692
Li   -2.999912    -2.621147    -0.918713
Li   -2.986837     2.147113    -0.908537
Li    0.482441     3.961626    -0.911430
Li   -3.641778    -1.712624    -0.910684
Li   -2.323444     3.043030    -0.905429
Li   -3.788010     0.668722    -1.848546
Li   -0.107163     3.927377    -1.852331
Li   -2.499290    -2.952467    -1.867158
Li   -3.143155     1.572660    -1.853475
Li    0.952338     3.595851    -1.862029
Li   -3.148506    -2.047813    -1.861427
Li   -2.489085     2.472867    -1.853394
Li    2.010599     3.255795    -1.868367
Li   -3.790833    -1.142078    -1.852022
Li   -1.828536     3.365483    -1.848387
Li    3.068421     2.912176    -1.871011
Li    1.063320     0.325095    -4.193066
Li    1.064541    -0.795364    -4.196635
Li   -0.001513    -1.141818    -4.193212
Li   -0.658048    -0.236772    -4.189114
Li   -0.001024     0.668586    -4.189299
Li    1.832689     0.886454    -3.622578
Li    1.836690    -1.355408    -3.630963
Li   -0.296920    -2.047555    -3.623115
Li   -1.608358    -0.237606    -3.614652
Li   -0.294560     1.572315    -3.614861
Li    1.846047    -0.235069    -3.638397
Li    0.774064    -1.711808    -3.638728
Li   -0.961069    -1.149724    -3.629870
Li   -0.959864     0.673487    -3.626286
Li    0.772940     1.239236    -3.630080
Li    2.598295     1.447063    -3.043680
Li    2.608531    -1.915389    -3.058079
Li   -0.592222    -2.952277    -3.045209
Li   -2.554954    -0.237541    -3.029745
Li   -0.587061     2.472510    -3.029922
Li    2.618655     0.326862    -3.067851
Li    1.548253    -2.274630    -3.071763
Li   -1.259699    -2.058558    -3.055913
Li   -1.913017     0.675125    -3.048665
Li    0.480325     2.146535    -3.052809
Li    2.621312    -0.796084    -3.071405
Li    0.479992    -2.620431    -3.068455
Li   -1.914708    -1.152367    -3.052541
Li   -1.256271     1.579583    -3.048667
Li    1.543633     1.803983    -3.056535
Li    3.363036     2.005446    -2.460225
Li   -3.493809    -0.236679    -2.436877
Li   -0.877268     3.365301    -2.436992
Li    3.385555     0.887462    -2.484930
Li    2.321858    -2.834109    -2.491337
Li   -1.551584    -2.964601    -2.465565
Li   -2.855846     0.673681    -2.454427
Li    0.187025     3.042452    -2.458366
Li    3.395141    -0.235138    -2.496355
Li    1.255478    -3.184432    -2.496920
Li   -2.210441    -2.058580    -2.468551
Li   -2.206963     1.579755    -2.460839
Li    1.249948     2.707839    -2.469214
Li    3.392791    -1.358159    -2.490697
Li    0.185714    -3.525172    -2.484975
Li   -2.857715    -1.149724    -2.458039
Li   -1.545894     2.477032    -2.454354
Li    2.307957     2.360695    -2.468526
412

Li     0.918992     3.339228     2.194600
Li    -1.929251     1.398069     3.663681
Li    -0.101195     3.445254     2.747180
Li     1.658862    -0.311470     0.750363
Li    -0.555989    -2.041223     0.125934
Li    -1.155704    -3.257154    -1.971955
Li    -0.553633    -0.227992     2.304036
Li     2.627553    -2.792733     1.472968
Li    -1.143039     0.793009     1.998760
Li     3.896374    -0.959361    -0.916361
Li    -0.358387    -1.634059     1.137934
Li    -0.573011     2.778069     0.104730
Li    -3.222882     1.232118    -2.549011
Li     2.687027    -0.760077     0.784477
Li    -2.193561     2.141535     2.872852
Li    -0.249900     0.121095    -2.842504
Li    -3.596848    -0.567127    -1.999850
Li     0.386405     2.600113     2.980203
Li     0.062971     2.758007    -1.818640
Li     2.603565    -1.885717     1.133866
Li    -0.904676     2.034572    -3.517427
Li    -0.830935     3.347332     1.986547
Li    -2.548010     0.402095     2.157366
Li    -0.150314    -2.401940    -2.770259
Li    -2.798575     0.055859     1.072607
Li     0.607143    -1.029477    -1.733474
Li     0.919483     0.452535     4.161682
Li     2.002251     1.326990    -0.838668
Li    -1.021906    -0.912578     1.734712
Li     0.340172     1.245073     0.353083
Li    -3.130597     1.847668     0.516375
Li    -2.563060    -0.650854     1.872146
Li     2.825870     0.631261    -0.809380
Li     2.125465     1.573174     0.188808
Li     0.236072    -2.393657     0.755098
Li    -2.531425    -1.812111    -2.630036
Li     1.801999     2.909205    -2.600729
Li    -2.835360    -2.140341     1.230568
Li    -2.768999    -1.336655    -0.262830
Li    -2.709837     2.298318    -1.174849
Li     0.547325     1.528858    -0.662698
Li     4.081906    -1.645912    -0.141298
Li     3.877884     2.740386     0.840452
Li     0.513525    -3.207656     0.004808
Li    -0.201578    -3.625619    -1.285745
Li     0.796893    -2.688794     1.817005
Li     0.037670     2.629689     1.918878
Li     1.966739     2.181448    -1.071710
Li     1.211138    -1.896492     2.346978
Li    -0.923697    -2.985765    -2.938955
Li     1.460838     2.394580     2.452651
Li     3.061702    -0.944358     1.718260
Li     0.931327     2.624198     1.492977
Li    -1.409008     2.302417     2.092828
Li    -2.241470     1.995320    -2.243824
Li     2.379532     1.143338    -2.681838
Li     1.466796     0.607247     3.412174
Li     0.361380     1.370680     3.961713
Li    -1.234198     0.294466    -2.417756
Li    -0.097510    -3.472710    -2.297566
Li     0.793164    -3.874247    -1.712234
Li     1.401767    -0.471025     4.278517
Li    -3.425217    -1.223120     1.632246
Li     0.819062    -2.866662    -2.101968
Li    -1.858174    -1.549921     1.343614
Li     2.691061     2.511037    -2.023029
Li    -0.339706    -2.638114    -1.544680
Li     0.358413    -1.628086    -3.459333
Li     2.819318     2.937831    -0.833884
Li     3.790512     0.214423    -0.720314
Li     2.133061     3.647536    -0.336212
Li    -1.971978     0.192345     0.305465
Li    -3.716715     1.672092     1.354295
Li     0.457783    -0.436113     0.059772
Li     2.307067    -2.452314    -0.637203
Li     3.170339    -0.113369     0.098821
Li     0.169880     3.625862    -2.163233
Li    -0.687299     0.290132    -3.906213
Li     2.114751    -0.384985     3.529142
Li    -3.003903    -2.478197     0.056491
Li    -1.021396    -1.972764     2.049600
Li    -2.520022    -1.730877     2.291252
Li    -3.288571     2.476688    -0.263665
Li    -3.702075     0.630050    -1.748299
Li     2.926912    -0.287172    -1.024797
Li    -1.859104    -2.820967    -2.419720
Li     1.976763     1.371450     2.648858
Li    -2.681972    -0.957165    -1.908856
Li    -0.036891     1.644513     3.036339
Li     1.608735    -2.639555    -1.413607
Li    -1.844139     2.688083    -1.552608
Li     2.013079     2.382856     0.967202
Li    -2.281790    -0.400262     2.808720
Li     0.850564     0.053628    -2.785767
Li     1.690234    -2.190896     1.489050
Li     0.052071    -0.986540     1.777499
Li    -1.710274     0.547718     2.868327
Li     1.657908     0.872649     0.886758
Li     3.053965    -1.243563    -1.756554
Li     0.567212    -2.072549     3.215732
Li     2.794570     1.749818    -0.580818
Li     1.117444     3.687547     1.156724
Li    -1.178080    -3.333181     1.234785
Li     3.606204    -2.278231     1.155307
Li    -2.189062     0.722098    -2.356967
Li    -1.558659     3.225139     0.176306
Li     0.785906     0.356847     0.699052
Li    -1.270477     1.640666     2.827910
Li    -0.291691     2.392085     3.696043
Li    -0.369764    -2.829086    -0.504007
Li     3.143142     3.268632     0.223760
Li     1.354763    -1.067139     0.000292
Li     1.446883    -3.952381     0.055802
Li    -2.775358     1.182937     2.928739
Li    -3.184643     0.204840    -2.787455
Li    -0.444520    -1.804356    -0.835807
Li     1.790788     0.958812    -1.749164
Li    -2.595725    -1.090258     0.758905
Li    -3.911751     0.080856     0.025079
Li    -3.815237    -2.314720    -1.432042
Li     3.651523    -0.327453     0.936072
Li     2.242154    -2.591453     0.523458
Li     2.222712    -0.416762     1.696059
Li    -0.447953     0.785474    -2.113944
Li    -0.426537     2.986815    -0.974902
Li    -1.575888    -0.066402     1.990547
Li     1.528767     1.648581     1.701834
Li     2.505927    -2.211473    -1.765361
Li    -2.167073    -2.849714     0.717853
Li    -1.416061     0.460784     3.832208
Li    -1.802038    -0.481601    -1.717351
Li    -0.440878     1.939135    -0.666632
Li    -3.105293     0.416240    -0.881474
Li    -1.340304    -0.607488    -0.804827
Li     1.661548    -1.107291     2.932169
Li    -3.311317     1.391843    -0.466806
Li    -3.587124     0.800995     2.147460
Li     1.512099    -1.880604    -0.555198
Li    -1.161821    -0.490175    -3.112733
Li    -3.819602    -1.008971    -0.320726
Li    -2.154044    -0.215631    -2.574561
Li     0.000836    -3.000905     2.619018
Li     1.443051    -3.593256    -0.972071
Li     0.474558     4.347018    -0.582305
Li    -0.660030    -4.087571     0.960902
Li     4.037630     1.678869     0.574170
Li     1.477264    -1.559987    -3.243922
Li    -2.968207     1.825664     2.119149
Li    -2.114721    -1.123364    -3.430218
Li     1.875752     3.189615     1.664566
Li     0.498263     3.409986    -1.214717
Li     2.914716    -0.320688    -2.566927
Li    -0.764270     0.095007    -1.513236
Li     2.523048     2.097796     1.895204
Li    -1.994553    -2.510758     1.846699
Li     1.057863     0.930296     2.424535
Li     0.687211    -1.779142     1.449813
Li    -0.505779    -2.246379    -3.653354
Li     3.315463     0.480490    -2.602093
Li     1.251530     1.085751    -2.751198
Li    -3.145067     2.636565     1.226791
Li     0.120989     0.756256     2.282735
Li    -1.201607     0.846308     0.485597
Li     0.144463     1.071126    -3.048610
Li    -1.126240    -1.320844    -3.959669
Li     0.080401     3.832150     1.552967
Li    -3.060643    -0.829189    -2.917575
Li     3.482161     0.915170     1.274408
Li     3.608079    -1.227622     0.827788
Li    -2.796887     1.212512    -1.479557
Li    -2.975959    -0.440081     0.084670
Li     0.280379    -0.635380     4.161124
Li     2.096841     0.170326    -1.097666
Li     1.081489     0.750086    -0.957200
Li    -2.045790    -1.911223    -1.683222
Li     1.202373    -2.065702     0.429409
Li    -2.219823     2.050264    -0.322674
Li     0.011345     1.717115    -1.560713
Li    -1.800923     2.946194     1.186855
Li     2.626454     0.320264     1.050509
Li     0.980670     1.679685     3.158287
Li     0.441131    -4.368058     0.419430
Li    -2.481119     2.745188     0.446890
Li     0.489815     0.553398    -0.173671
Li     3.432992     1.998381    -1.267018
Li     0.125965     3.064190     0.830474
Li    -1.281429    -1.535332    -0.351722
Li    -0.675482     1.758926     0.350564
Li    -2.399685     3.127437    -0.557829
Li     0.937249    -2.540330    -3.169033
Li    -1.189649    -3.461355    -0.801525
Li    -0.483500     2.880608    -2.798189
Li     2.143724    -1.367819     4.024599
Li    -1.327138     2.331370     3.511969
Li    -0.504425     0.037806    -0.599890
Li     1.362841    -0.737851    -0.942019
Li    -0.206573    -1.656715    -1.955601
Li    -1.835448     0.682748    -1.555318
Li    -1.159946    -1.397587     3.430862
Li     1.306225    -0.080774    -0.274004
Li     3.000255     0.168363     2.025780
Li     0.228775    -3.570124     1.079730
Li    -3.098688    -0.974753     2.693767
Li    -2.546611     0.403040     3.649705
Li     1.364844    -0.811507    -2.470733
Li     1.944888     0.105196    -2.547336
Li    -1.070409    -1.467777    -1.440934
Li     0.154752    -4.618629     1.529886
Li     1.220694    -4.008382     1.227429
Li    -0.014599    -1.953073     2.121842
Li     1.126008    -0.041248    -1.801990
Li     2.460148    -3.156732    -1.347235
Li    -3.626980     1.725607    -1.528941
Li    -0.647646    -3.179141     0.581189
Li    -0.398458    -2.729783     1.504653
Li     0.275027     4.078910     0.546525
Li     2.572058     0.354533    -3.286470
Li     0.564674    -4.096984    -0.642858
Li    -0.886789     1.022467    -3.128860
Li    -0.517067    -1.148774    -0.266510
Li    -1.800177     1.557460    -3.112754
Li     1.010161     1.200442    -3.680212
Li     0.854583    -0.676894    -3.478808
Li     2.175054    -2.411325     2.478110
Li     1.185634     3.936899     0.087403
Li    -1.613305    -1.156107     2.398705
Li    -3.082068    -1.735318    -1.288770
Li     1.331404     0.124117     1.603489
Li    -2.436521     2.894643     2.056479
Li     3.019073     2.189678     0.553343
Li     0.246281     0.151679     1.516009
Li    -0.762695    -0.700319    -2.280626
Li    -1.760542     1.654310    -1.201312
Li    -1.758644    -2.140909     2.854002
Li     1.274132     1.975634    -0.423300
Li     1.614705    -3.423344    -2.091836
Li    -1.642527     2.305107     0.459625
Li     2.254299     2.691332    -0.001299
Li    -0.653440    -1.186965     2.711944
Li     0.547884     4.418652    -1.616854
Li     4.135535    -0.524390    -0.000362
Li     1.181223     3.748414    -2.013429
Li    -1.454834     1.471393    -2.218717
Li    -1.843610    -0.494126     3.791105
Li     0.496587    -2.232115    -0.311499
Li    -0.890142     1.445623     3.771519
Li     1.294028     1.043019    -0.095661
Li    -0.226768    -0.748708    -3.611102
Li     1.114080     1.697470     0.620446
Li     2.227729    -1.331896    -2.545831
Li     0.563764    -0.145735     2.341270
Li    -0.722965     2.551997     2.806581
Li     0.643560    -2.951188    -0.964351
Li     1.215114    -0.929708     1.883200
Li    -2.776949     1.075251     1.196194
Li    -0.724876    -1.503980    -2.881405
Li    -1.578194    -0.226682    -4.168484
Li    -1.251779    -1.334174     0.583064
Li    -3.128184    -0.753271    -0.946493
Li    -1.289880     2.493173    -2.610569
Li     0.662922     1.827750     2.092990
Li     3.019701    -2.106588     2.075472
Li     2.153885     0.666733     1.985332
Li     1.666116    -2.356238    -2.408567
Li    -0.754133    -0.601602     4.092392
Li     0.312474     2.138779     0.159162
Li    -1.342336    -3.601626     0.284360
Li    -2.175881    -3.147230    -0.261342
Li     3.407126     1.966840     1.454431
Li    -0.562861     1.743843     2.020130
Li    -0.363645    -3.869639    -0.161129
Li    -1.140689    -3.054657     2.288244
Li     2.192951    -1.512708     1.959733
Li    -1.703743     3.053761     2.826625
Li    -0.569765    -2.235874     2.941317
Li    -2.621277     1.015835    -3.457417
Li     3.241560    -2.912422    -0.635424
Li    -3.185153    -2.800441    -0.957491
Li     2.677323    -0.722288     2.580635
Li     1.674629    -1.559473    -1.800262
Li     3.038873     1.074768     0.233985
Li    -3.688856    -0.522789     0.842571
Li    -1.434317     1.475629    -0.201515
Li     0.869081    -0.683507     1.093486
Li    -4.206199     0.938931    -0.842447
Li    -0.571149     0.582774     3.081056
Li    -2.198223    -3.022245    -1.378567
Li     3.642823     0.827985    -1.534338
Li     2.702634     0.345479    -1.841201
Li     2.505904     1.377044     1.200289
Li     2.479118     2.117696    -2.950270
Li    -1.155422    -0.277155     0.205540
Li    -3.898116     1.318255     0.236589
Li    -3.410952    -0.254016     1.831717
Li     2.237481     0.554085    -0.043452
Li    -1.267699    -0.272176     3.004835
Li     2.559361    -1.620074     3.002268
Li    -1.420163     2.489505    -0.676909
Li     0.617165     0.927400    -2.043852
Li     0.346582    -1.427941     0.503107
Li     0.085506     0.616566    -1.207811
Li     2.543918     1.437332    -1.667499
Li     0.757618     2.860997    -2.643555
Li    -0.153776     0.340853     0.474026
Li    -0.449110    -3.690832     1.919498
Li    -2.901350    -0.626540     3.739483
Li    -1.566381    -2.103252    -3.296303
Li    -0.452097     0.973657    -0.255561
Li     0.310286     3.137832    -0.164154
Li    -0.638708     3.727633    -0.171714
Li     3.614274     2.337805    -0.267316
Li    -0.094102    -0.312265     3.254621
Li     3.266903     1.754166    -2.428478
Li    -1.261626     1.599050     1.224098
Li     0.751616    -3.846247     2.049115
Li     2.592162     0.413297     2.922239
Li     2.105318    -0.633778    -3.385775
Li     0.549439     2.519886    -0.942193
Li     0.417730     0.355219    -3.822958
Li    -1.423902     3.491544    -0.945939
Li     1.071272     1.625077    -1.316700
Li     0.375626     0.664978     3.222139
Li    -1.771128    -0.512743     1.006135
Li     3.712621     1.192460    -0.604298
Li     1.760232    -1.299831     1.024842
Li    -3.622315     0.530692     1.052549
Li    -1.951364     1.396177     2.114073
Li    -1.821180     0.550589     1.240527
Li    -0.203610    -0.679203     0.777562
Li     0.860137    -1.358596     3.814751
Li    -1.432155     0.500312    -0.436487
Li    -1.047466    -2.110122    -2.156910
Li     0.899156    -0.318969     3.391305
Li    -2.280780     2.044110     1.270051
Li     1.294874    -2.977771     0.807836
Li    -1.258182     1.156055    -3.983798
Li     3.078033    -2.196383     0.048349
Li     1.363863     2.124091    -3.278087
Li    -2.711974     0.027720    -1.826690
Li    -1.185238    -2.429819    -1.062049
Li    -0.289971     1.256834    -3.977384
Li    -4.112528    -0.239406    -1.077937
Li    -3.196560     0.084236     2.828042
Li    -0.731794     3.507319     0.950462
Li    -2.282263    -1.351593     3.197929
Li     3.252256    -1.876908    -0.912190
Li     1.322016     3.033191    -0.678261
Li     1.183416     2.622247    -1.759819
Li     3.630364    -0.136455    -1.738731
Li     0.348839     2.089069    -3.322671
Li    -2.979877     0.838830     0.293820
Li     1.235923     2.744214     0.300288
Li    -2.559760    -0.055126    -3.550790
Li    -2.059738    -1.092219    -0.971331
Li     2.901439     2.953625     1.168050
Li     0.188585    -0.747576    -2.695305
Li    -1.000669     2.179224    -1.584249
Li     2.298703    -1.582512     0.199085
Li     1.647734    -3.227151     1.730545
Li    -0.230293    -1.296067     3.705097
Li     2.200299    -0.561137    -1.715861
Li    -1.872201    -0.819403     0.050647
Li     3.089771    -1.000090    -0.147873
Li     2.129543    -0.599866    -0.191615
Li    -0.817607     2.473883     1.219360
Li    -0.992556     3.159164    -1.974877
Li    -0.391629     1.797451    -2.467379
Li    -0.919240     1.094354    -1.213144
Li    -0.237670    -0.785599    -1.288506
Li    -2.229600    -2.280639    -0.751310
Li     1.201243    -2.873058     2.697437
Li    -1.762710     0.429510    -3.376470
Li    -0.307521     1.038413     1.194895
Li    -1.980813    -1.834402     0.405622
Li    -0.261034     0.318981     3.949291
Li     1.850049     1.878911    -2.086538
Li    -1.222629    -2.242148     0.953283
Li     2.135779     3.487859     0.609020
Li    -0.969493     0.145273     1.328730
Li     0.254809     2.004763     1.114035
Li     1.623921    -0.016945     2.573810
Li     1.516648    -2.201040     3.349929
Li    -3.953028    -1.316499    -1.341765
Li    -1.537809    -1.262123    -2.533796
Li     0.494323    -1.166596    -0.689761
Li     0.599036    -1.110684     2.774262
Li     1.999968     3.203878    -1.465347
Li     0.794535     1.913470    -2.271196
Li     3.004807     1.237282     2.189167
Li     0.727245    -1.771627    -2.364657
Li     2.285155    -1.268679    -0.999149
Li    -0.361533     3.950069    -1.386889
Li    -1.332360    -2.565105     0.009811
Li     2.303401    -3.335042    -0.333183
Li     0.651887    -2.070162    -1.365332
Li    -2.082990     1.246218     0.562708
Li    -3.520848    -1.666394    -2.175471
Li     1.410482     4.097133    -0.989233
Li    -2.262547     0.875564    -0.616924
Li    -2.275666    -0.023795    -0.700105
Li    -3.742896    -2.054992    -0.472808
Li     0.461215    -0.293339    -0.988802
Li     3.082627    -3.103275     0.402711
Li     2.051811    -3.728482     0.762578
Li     4.007037     0.454188     0.366635
Li    -3.508216    -1.578744     0.478142
Li     1.521146     0.402338    -3.650588
Li     0.774136     0.972051     1.467403
Li    -2.932647    -2.558415    -2.027444
Li     1.380119    -2.780837    -0.346310
Li     0.217698    -0.109904    -1.916424
Li     2.075027     1.337527    -3.574330
