316

Na     3.279080     2.282586     2.194088
Na     0.314381    -1.131849     4.680772
Na     2.988609     0.367736    -0.824830
Na     1.142201     1.416819     2.871085
Na     1.158025     2.657837     0.730147
Na    -2.008727    -0.605000     1.165802
Na     2.059896    -0.749159     2.104632
Na     1.608307     1.611394    -0.540057
Na    -1.317440    -0.459223     0.522549
Na     0.363619     0.950077     2.559442
Na     0.312080    -0.222148     0.450448
Na    -0.091895     3.404347     2.672227
Na    -1.773430     0.020740     2.992780
Na     1.269241    -0.234657     2.012407
Na    -1.500041     0.501175    -1.859714
Na    -1.441701    -2.510339     3.312134
Na     1.625882     0.080631     0.502586
Na     0.603873    -1.707566     3.457402
Na     0.832490     0.581130     0.435494
Na    -0.081475    -1.857379     4.119816
Na    -0.658248    -0.884490     1.086443
Na    -1.185099     0.322887    -0.952202
Na     0.538463     1.476922     4.122284
Na    -0.220265     2.578417    -1.332264
Na    -0.400577     0.779935    -0.643266
Na     2.617350     2.727243     1.599162
Na     2.594173    -1.145817    -0.082333
Na     1.733179     1.937383     0.382456
Na     2.281255     1.188427     0.051666
Na     0.956064    -0.050220     1.144151
Na     0.920708    -2.584670     1.137562
Na    -2.149512     1.951207     0.826934
Na    -2.016775     1.820555    -0.867805
Na     0.693711    -0.794149     3.105267
Na    -2.762177     0.206272     2.022793
Na    -1.634496    -1.056169     4.227146
Na     1.858127     2.849930     0.057404
Na     2.296911     1.764009    -1.218012
Na     2.298241     0.219085    -0.148434
Na    -1.660683     2.858747     2.184658
Na     0.383378     0.238706    -2.020652
Na    -2.757173     1.182467     2.229401
Na    -0.546531    -0.550078     1.995562
Na     1.861450     0.363805     4.002762
Na    -1.561565    -2.285530     1.124499
Na    -0.928226    -0.900095     3.549087
Na    -1.416833     1.540355     3.673637
Na    -0.890735    -2.684021     1.702591
Na    -0.492440     1.818335     0.679260
Na     1.727800     2.979209     1.968327
Na     0.357775     1.843521    -1.691253
Na    -0.169209     0.142099     2.569557
Na     0.829694     1.574812     1.972142
Na     1.207683     0.901923    -1.104581
Na    -0.301634     3.624529     0.044156
Na    -2.509569     1.177311    -0.277893
Na    -2.816304    -1.673870     2.148709
Na     0.675835    -2.755803     2.097097
Na     0.105777    -0.410278     1.355519
Na     2.392250    -0.948202     3.002514
Na    -2.884130     0.861294     1.285976
Na     1.999172    -1.680978     2.441944
Na    -1.222974    -1.166269    -0.121303
Na    -0.728443     1.667632     2.983141
Na     0.434642    -0.901485    -0.172475
Na    -2.910171    -1.992619     1.206702
Na    -1.319769    -1.591673     2.971279
Na    -0.724629     2.929076    -0.541290
Na     2.390065     0.030708     3.219711
Na     0.186812     3.287706    -0.752053
Na     0.943291     1.456616     0.116007
Na     2.513665     0.846689     1.710308
Na    -0.667716    -2.533703     0.757644
Na     1.327655     1.814544    -1.467179
Na     0.245441    -2.745554     0.415688
Na    -0.442635    -2.332671    -0.188797
Na    -1.686602     0.661338    -0.175910
Na     0.825345     3.205906     2.321256
Na     2.421873    -0.428107     0.576859
Na    -1.436605     3.077828     1.232161
Na    -0.442438     1.513138     3.916786
Na    -0.982966     3.028738     2.901894
Na    -0.555017    -0.001416     0.793256
Na    -1.902868    -0.288764     2.078028
Na    -1.205255    -0.699255     2.643862
Na    -1.263643     0.848097     3.003457
Na     1.062610    -0.087865     3.658476
Na     0.252687     0.930346    -1.325055
Na     1.882650    -1.259984     0.595771
Na    -1.681954     1.626452     0.030180
Na     0.880395    -0.939375     1.449763
Na    -2.945252    -0.440262     0.152823
Na    -0.204331    -2.101097    -1.131559
Na    -0.057966     1.111108    -2.234774
Na    -0.860549     2.377884     3.640285
Na    -0.277478    -3.078691     2.372166
Na     1.154422     3.258613    -0.527898
Na     1.732155     2.519891    -0.880797
Na    -1.106958     0.180066     2.334789
Na     0.238864     1.633115     3.204616
Na     0.363278     3.802195     0.760987
Na     2.388816     1.500755     0.975389
Na     0.210836    -2.389980     2.889299
Na     0.482247     0.275568     1.910582
Na    -0.019244     0.648207     4.160759
Na     3.241558    -0.956477     0.658673
Na     0.921562     1.084679    -2.021979
Na    -0.333419    -1.388060    -0.473701
Na    -0.098662    -2.170191     1.981146
Na    -1.928659     0.670542     2.286997
Na    -1.329383    -1.028274     1.735189
Na    -1.200546     1.293725    -0.754992
Na     2.037187    -1.978807    -0.049020
Na     0.812838    -0.625277    -1.777952
Na    -0.705256     0.954612    -1.525967
Na     1.507407    -1.348958     3.238594
Na    -1.280978     2.337303     0.594811
Na     0.191780     0.444485     1.063882
Na    -0.311847     1.668871    -0.984051
Na     0.265574    -1.461788    -1.727263
Na     3.349694    -0.640473     1.594921
Na     1.193081    -1.140522     2.336981
Na     2.323367     0.190503    -1.541461
Na     1.353972     0.209850    -1.796858
Na    -2.620919     0.508048     2.968758
Na     0.135794     3.616249     1.719349
Na     0.773702     0.099041     2.775397
Na    -2.098802     2.868165     0.509589
Na     1.050297     1.769197     1.038173
Na    -0.984249     0.680944     3.938288
Na     1.093747    -0.740804     0.520331
Na     2.425375     2.107857    -0.285239
Na     0.678763     0.070287    -1.105290
Na     1.663855    -1.461973     1.538086
Na    -2.974036     1.522232     0.541467
Na    -2.692978    -1.338760     3.086857
Na    -0.554426    -0.192279     4.157066
Na     0.011615    -1.283252     1.659120
Na     1.733005     0.393099     1.426501
Na     1.895099     1.052925    -1.783934
Na     0.658641     0.778353     3.445247
Na    -0.624052     1.851662    -1.892833
Na     2.878521    -1.278596     2.190173
Na     1.585932    -2.387863     1.859833
Na    -0.807968     2.015229    -0.207238
Na    -0.055848     1.784344     2.305900
Na    -0.306013     0.820592     3.242500
Na    -0.592753     0.987797     2.339610
Na    -0.183951     2.476041     2.945108
Na     0.122523    -2.012816     1.047990
Na     0.038587     2.689709     2.016470
Na     0.135567    -0.751230    -1.067684
Na    -2.868771    -0.112510     1.090677
Na     1.051218     3.403867     1.372232
Na    -0.169137    -0.596526    -1.983861
Na    -2.214917    -1.859927     0.548839
Na     2.426628     0.537082     0.777128
Na    -2.095243    -0.930719     0.256026
Na    -1.562058    -1.023885    -1.038050
Na     2.526978    -1.070397     1.307586
Na     3.346251     0.337585     1.801652
Na    -2.236290    -2.432644     1.798354
Na    -1.616811     2.553192    -0.310335
Na    -2.719755    -0.770385     1.824097
Na    -2.002349    -1.186858     2.391919
Na    -2.867412     1.841964     1.477707
Na     1.814476    -2.202589     0.902411
Na     1.110267    -2.059101     2.673107
Na    -1.355121     0.491131     0.708103
Na    -2.496144     0.198086    -0.473821
Na     2.024692     1.179964     2.505427
Na    -0.554206    -1.607044     0.454647
Na     1.785138    -0.655119    -1.533182
Na    -1.205900     3.257758     0.273538
Na    -2.049398     1.314964     1.559820
Na     0.969832    -0.094610    -0.204017
Na    -1.118076    -1.884985    -0.779519
Na     1.885841    -0.614578     3.795503
Na    -2.016016    -1.655890    -0.408477
Na    -2.499835     2.155921    -0.056832
Na     3.240178     1.000716     1.054783
Na     0.547346     0.755253    -0.442148
Na    -1.955000     0.685856     3.686239
Na    -0.889012     1.115748     0.120592
Na    -0.714223     1.624383     1.612426
Na    -2.138592     0.031543     0.431771
Na     1.149157    -2.380132     0.185646
Na     1.553829     0.547984     3.094612
Na     0.342799    -1.814509     0.114826
Na    -0.649272    -1.426592     2.308023
Na    -2.109320    -1.504775     1.475974
Na     1.010811    -1.656116     0.823960
Na    -1.127544     2.215296    -1.107987
Na    -2.053319     0.354096     1.360178
Na    -0.101998     0.610104     0.218842
Na     1.360071    -2.147533    -0.767130
Na    -0.850161     2.315081     2.246511
Na     1.600054     2.041875     2.262170
Na     2.820815     1.648205     2.809328
Na     0.084675     2.371042    -0.426234
Na     0.221799    -1.115227     0.740237
Na    -0.599717     0.277770    -2.215747
Na    -1.402485     1.500959     2.281698
Na    -0.661481    -1.098616     4.470165
Na     0.108568     2.345058     3.863349
Na     2.479786    -1.991942     1.622574
Na     3.318741     1.309024     1.999879
Na     0.989829    -1.004663     4.001612
Na    -1.441798    -1.920171     2.053321
Na     0.760449     2.556564    -1.124561
Na     1.634765     0.041917    -0.863132
Na     1.226812    -1.434955    -0.110694
Na    -1.227062    -0.140367     1.430033
Na     1.697372     1.339841     1.617297
Na     2.535060     2.425628     0.652566
Na     0.472583    -2.527419    -0.539800
Na     0.260947     2.884275     1.082183
Na    -0.770428     3.255755     1.950036
Na    -2.323094     2.670783     1.457666
Na     1.494215     2.760420     2.920364
Na    -1.342192    -2.109581     0.168555
Na    -2.154401     0.994149     0.626254
Na     3.093636     1.663587     0.313986
Na     2.883733    -0.301646     2.417554
Na    -0.873167     0.156464    -0.075370
Na    -2.220544     2.028112     2.221096
Na     0.382672     2.166937     0.459773
Na    -2.130670    -2.098937     2.727426
Na    -2.971661     0.539876     0.340130
Na     0.787563    -1.835291     1.764437
Na     2.469088    -0.488377    -0.819344
Na    -0.544463     3.453952     1.000976
Na    -1.505866     2.139936     1.539966
Na     1.932549     1.894774     3.185307
Na     1.732472    -0.555136     1.225675
Na     0.939806     2.482143     1.675235
Na    -1.251374     0.811978     1.630100
Na     3.192119     1.975331     1.251976
Na     1.608730     1.038654     0.700854
Na    -0.630562     2.531694     1.309876
Na     2.971740     1.339858    -0.625227
Na     0.582381     2.979727     3.266501
Na    -0.262169    -0.743342     2.884884
Na     0.009863    -2.933543     1.379647
Na     1.250170     0.723419     2.211956
Na    -0.656967    -1.246263    -1.396948
Na    -0.367674    -1.633409     3.210489
Na    -1.047236    -1.809686     3.894617
Na     1.030597     2.122628     3.536931
Na     0.115590    -0.037851     3.454478
Na    -1.086999    -0.383174    -1.638997
Na    -1.495438    -0.157831     3.919965
Na    -2.812425    -1.078267     0.909760
Na    -0.481228    -2.564873     3.530521
Na    -1.514882     1.474989    -1.662946
Na    -2.452193    -0.787089    -0.645971
Na    -1.986351    -0.145840    -1.263541
Na     0.285381     1.296859     0.765972
Na     3.255854     0.026312     0.853119
Na    -1.651889    -0.307775    -0.359129
Na     2.700540    -1.790026     0.676891
Na     2.529700    -0.112465     1.511381
Na    -2.009908    -1.767011     3.655356
Na     1.234094    -1.491931    -1.503629
Na     1.049949     2.341838    -0.202784
Na     2.155733     0.869075    -0.865004
Na     2.060992     0.214857     2.316094
Na     0.482507     3.057989     0.145699
Na    -0.010948     1.485613    -0.104913
Na    -2.906270    -1.432978     0.001126
Na    -0.767836    -0.540591    -0.730885
Na     1.455572     1.253213     3.784187
Na     0.163622     1.993559     1.385856
Na     0.306769    -1.488934     2.547696
Na    -0.287345     0.099075    -1.306606
Na     2.867409     0.671790     2.620610
Na     0.561093    -1.594807    -0.810393
Na     1.262567     3.575800     0.407190
Na    -1.539704    -2.847474     2.390228
Na    -2.455123    -0.229895     3.687561
Na     1.102180    -0.780345    -0.844722
Na     0.392152    -0.222781     4.362635
Na    -2.596956    -0.451942     2.733225
Na     0.020940    -0.936088     3.771010
Na     1.775882    -0.616417    -0.143724
Na    -0.574016     0.937043     0.985690
Na    -1.353552     1.437832     0.907675
Na    -2.100601     1.367807     2.962568
Na     0.956461     0.601237     4.356890
Na    -0.450767     0.317792     1.691697
Na     3.127234    -0.297154    -0.087614
Na     2.471900     1.801266     1.900208
Na    -1.555290     2.205740     2.937900
Na     0.711769     2.265753     2.609493
Na    -2.021007     0.838696    -1.074815
Na     1.486293     0.723179    -0.206864
Na     1.927855    -1.323560    -0.800123
Na    -0.449464    -0.693649     0.161046
Na     1.574270    -0.419474     2.892166
Na    -0.829675    -0.002238     3.234159
Na    -0.766421    -1.775464     1.391563
Na     3.130552     0.683681     0.116222
Na    -1.864610    -0.873353     3.298993
Na     0.014130    -0.065744    -0.424947
Na     0.652954     1.648760    -0.780783
Na     2.352365     1.010743     3.414380
Na     1.824054     2.239577     1.316530
Na     2.388659     2.525758     2.561691
Na     0.399601    -0.602019     2.225971
Na    -1.430664    -1.361222     0.816626
Na     1.949391     3.160489     1.005161
Na    -0.770747    -2.304344     2.638251
Na    -0.402532     2.707110     0.367486
Na     0.937398     0.887585     1.338620
Na     0.069942     1.109006     1.679408
Na     1.344179    -0.298725     4.581282
316

Na     2.853080    -0.204806     1.370917
Na    -0.407779    -0.192810     0.238104
Na     2.783121     1.681660    -3.412225
Na    -0.022575     1.460601     0.266153
Na    -0.853717    -0.167954     0.987852
Na     0.351907     2.619224     0.165317
Na     1.235612    -2.751395     0.043010
Na    -0.322849    -2.430339     1.074740
Na    -2.197344     0.296820     0.265964
Na     0.863207    -1.037909     2.849524
Na     2.802680     0.141040    -1.733357
Na     1.726511     1.643074    -3.734546
Na     1.716651     1.047043    -2.342864
Na     0.846908     1.378438    -3.708588
Na     0.903070     1.522196    -2.113534
Na     1.252646     3.026025    -2.898504
Na    -1.001835    -0.825545    -2.938105
Na    -1.850813     1.698836    -0.566442
Na     2.784151     0.376431    -3.505087
Na     0.786188     0.363919     0.812569
Na    -0.713830     2.246969     1.636582
Na     3.285984     1.717346    -1.994128
Na     4.150565    -1.075517     0.448038
Na    -0.384749     1.490166     1.246241
Na    -0.960630    -0.536495    -0.510279
Na     3.787411    -0.567388     1.226380
Na     1.115899     2.228679    -3.494899
Na    -0.283975     0.197078    -3.793299
Na    -1.852485    -0.702834     0.330293
Na    -0.279269     0.226321    -0.798544
Na     1.326636    -0.503548    -0.415215
Na     1.253724     0.578277     1.596337
Na    -0.369032     1.253745     2.947830
Na     4.416930    -0.058697     0.667681
Na    -1.087447    -1.726358    -1.271378
Na    -0.739328    -0.032378    -1.505511
Na     0.334441     1.986861     1.461963
Na     1.199672     2.350819     1.500190
Na     4.144034     0.938783     0.577694
Na     3.457517    -1.603053     0.146920
Na     0.778574     0.692375    -2.249009
Na     1.909780     3.150028     1.272342
Na     0.455904    -2.443934    -1.296958
Na    -0.005032    -0.496715    -3.054727
Na    -0.095589     0.312734    -2.085878
Na     3.797808     1.483625    -1.205462
Na     0.474429    -1.083507     1.525629
Na     3.701739    -1.016209    -1.293592
Na     2.533093    -1.173034     1.138846
Na    -1.568362    -0.747062    -1.312594
Na     2.774212    -2.021359     0.752289
Na     0.246171     0.353146    -3.008960
Na     0.928658    -0.845904    -1.046690
Na     0.891733     3.223235    -1.130102
Na     0.738230    -1.274278    -0.183048
Na     0.984244    -1.820792     0.296522
Na     2.631929     0.885134    -0.128576
Na     2.445057     2.112255     2.469404
Na     0.721263     0.102933    -0.697434
Na     1.198775    -2.962482    -1.009206
Na     1.429829     1.781957     2.659752
Na    -1.353647     0.082299     0.219840
Na     0.111790    -0.397653     0.886861
Na     1.886828     3.485270     0.339071
Na     1.387805     1.447233     1.103009
Na     0.579191    -1.998367    -2.301102
Na     0.301314    -2.831050    -0.457223
Na    -0.715032     0.641563     1.560677
Na     0.742579    -1.088322    -2.835298
Na     0.294530     2.231841    -1.762316
Na     1.807800    -0.661036     2.858409
Na     2.225238    -0.741598    -0.336238
Na     2.259651    -0.474884     0.619377
Na     1.133832     2.580861    -0.438288
Na     0.516762    -0.431427     0.206417
Na     1.045662    -1.673649     1.264859
Na     3.673769     0.955563     2.048156
Na     3.079787     0.865668    -1.087703
Na     4.010945     0.472353     1.359247
Na     0.575249     1.410249     2.827361
Na     2.916959    -1.835579     1.832236
Na     2.407989     0.334179     1.936154
Na     3.434353     2.520654    -1.325337
Na    -1.245964     0.664463    -2.167558
Na     2.245450     1.176298     2.968955
Na    -0.269452    -1.723949     1.770993
Na     3.160443    -1.009944     1.901790
Na     1.331027    -0.965645     1.964775
Na     2.673802     3.226494    -0.128144
Na     0.097990     2.063895    -3.494004
Na     2.605860    -0.673361    -1.293379
Na    -1.463168    -0.948863     1.163927
Na    -1.193970    -0.102733     1.871618
Na    -0.150156    -1.046053     2.406659
Na     1.301086    -2.538058    -1.891915
Na    -1.317272     1.683240     1.305821
Na    -0.194636     2.130125     0.691968
Na     2.409519    -1.291622    -2.476197
Na    -0.989891     1.563876     0.297417
Na     2.194372     1.335296     0.556130
Na    -1.928520    -0.232200    -0.506423
Na     1.534731    -1.670356     2.558211
Na     3.859746    -0.304259    -0.112754
Na     2.193933     2.476348    -0.080448
Na     1.908985    -0.021529    -3.282126
Na     1.756825     3.362215    -0.605978
Na     2.597938    -0.595865    -3.046288
Na     0.471840    -0.292299    -2.399939
Na    -0.380234    -2.194104    -0.841936
Na     3.838037     2.250832    -0.642228
Na     1.986664    -1.610289     1.853936
Na     3.502170    -1.523708     1.244711
Na     1.032684    -2.120337    -0.606138
Na     2.430344    -1.523527    -0.753944
Na     2.681794    -2.481589    -1.054063
Na    -0.148171     1.973017     2.348463
Na     2.267743    -0.729277     1.853998
Na     1.387722    -1.750265    -2.369180
Na     1.264195     2.664156     0.418039
Na     3.214501    -0.792985     0.490119
Na     0.513391     1.627462    -1.271910
Na     1.629328     1.001603    -0.295677
Na     1.033011     0.055685    -1.620035
Na     2.000375     0.364379    -1.684036
Na     2.222472    -0.484796    -2.086904
Na    -0.281260    -0.316838     1.845434
Na    -0.245003     0.588540     0.892914
Na     0.133491    -0.220997    -1.437257
Na     2.077684     1.040529    -1.127420
Na     1.695135    -0.576392    -1.131560
Na     2.013946     2.462009    -0.992790
Na    -0.653100     2.589118    -1.857752
Na    -1.157335    -1.794866     1.214478
Na     1.311800     1.692826    -2.857683
Na    -0.813599    -0.311975     2.758227
Na    -1.158849     2.301943    -0.355309
Na     0.000834     3.158521    -1.468412
Na     0.257858     0.740701    -1.441032
Na     3.615409     0.770854    -2.026632
Na     3.459028     0.110855     0.665251
Na     2.707753    -0.418365     2.693245
Na     2.118879    -2.814360    -0.590526
Na    -0.626432     2.987586     0.092279
Na     3.150433     3.168594    -2.128088
Na     1.543912    -1.120879     0.118900
Na     0.240330     2.454728    -0.920149
Na     3.477762     3.208743    -0.817604
Na     0.796878     2.373130     2.226935
Na    -1.204251     2.461956     0.686861
Na     0.974906    -0.389867     1.388988
Na     2.946595    -1.693194    -1.725358
Na    -0.045913     2.871899     1.924826
Na     0.038737     3.321977    -0.571770
Na     1.790801     1.681276    -1.589413
Na     1.711303    -1.037794     1.229620
Na     1.362017    -0.061206    -2.393823
Na     2.377531     1.645902    -0.471121
Na    -0.206951     0.357825     2.531997
Na     2.506952     2.500014     1.705647
Na     0.919003     1.182800     0.277284
Na     4.103939     0.607623    -1.113912
Na     0.975888    -1.723344    -1.421806
Na    -0.588945    -1.425174    -0.508149
Na    -0.563888    -1.821246     0.420175
Na    -1.858003     0.126473     0.964190
Na    -0.451771     3.089693     1.068876
Na     1.562210     0.659234    -4.024084
Na     0.899656     3.475336    -0.107035
Na     3.415774    -0.142993    -0.950835
Na     2.053789    -2.741327     0.432064
Na     1.559339     0.524949     0.674208
Na     1.047917     3.527651     0.858626
Na     2.455267     0.425897     0.707930
Na    -1.599771     1.144746    -1.307394
Na     2.501222     2.347456    -1.869130
Na    -0.060066     1.165237    -0.576633
Na     2.953647     0.529567     2.861098
Na    -1.520003     0.707026     1.687510
Na     3.300672     1.594819    -0.297918
Na     1.484978     2.293756    -2.304795
Na     2.368585     0.037184    -0.907318
Na     2.725155     1.803310    -1.195856
Na    -2.139534     0.687741    -0.671296
Na     3.104463     1.616787     2.881253
Na     0.120647    -1.974596    -0.038846
Na     4.444237     0.426261    -0.243369
Na     3.810393    -0.135458    -1.689154
Na    -1.787900     1.916242     0.448132
Na     2.991074     1.033874    -2.708126
Na    -0.981015    -1.263498    -2.138715
Na     2.604357     1.044300    -1.795096
Na     1.054150     1.381105     1.949344
Na     0.871869    -1.112265     0.702632
Na     0.202597    -1.637995     0.915321
Na     0.288289     0.697929     3.289474
Na     1.854968     3.147023    -1.601711
Na     1.024672    -0.325892    -3.289787
Na     3.291851     1.997344     1.938924
Na     0.609923    -0.290957     2.341245
Na     1.465836     1.584881    -0.804650
Na     2.109825     0.263737     2.960138
Na     0.227496     0.421304     1.633402
Na     0.027367     0.996935    -3.665462
Na     1.770146    -2.225442    -1.019290
Na     0.080061     1.221412     2.058872
Na     2.988025    -0.088582    -0.084162
Na     3.650402     1.437285     1.342303
Na     3.724949     1.834767     0.350473
Na    -1.002322     1.541942    -1.971453
Na     0.328478    -2.671800     0.486567
Na    -1.294209    -2.010259    -0.175690
Na    -0.990160     1.436110     2.091896
Na     0.270255    -1.538501    -0.954148
Na     1.719123     2.716143     2.116192
Na     0.288121    -1.179879    -1.895380
Na     0.766647     2.333598    -2.701061
Na     3.098803    -0.927601    -0.456620
Na     1.016864     3.091830     1.730407
Na     0.658622    -1.730919     2.228724
Na    -0.060094    -0.987117     0.376365
Na     1.081217     0.321491     0.046834
Na     1.888312     0.034165     1.338379
Na    -0.451173    -1.066539     1.093419
Na    -1.357981    -0.266213    -2.225747
Na    -1.245217     0.475135    -0.731463
Na     0.502080    -2.509994     1.627259
Na     0.375924     1.317775    -2.812278
Na    -0.468673    -1.034698    -1.429878
Na     3.387275     0.114188    -2.560194
Na     0.719057     0.649627     2.449173
Na    -0.059930     1.381768    -1.913817
Na    -0.210888     1.936421    -2.669669
Na     0.625503     0.421959    -3.886971
Na     0.142877     3.597393     0.510195
Na     1.489205     0.230890    -0.796411
Na     0.050365    -0.631932    -0.550821
Na    -0.608060     0.699560    -0.105067
Na    -1.579022    -1.494139     0.392433
Na    -0.320018     1.991167    -0.307429
Na     1.646733    -1.234912    -0.673477
Na     4.207733    -1.128537    -0.414895
Na     2.819711     2.007674     0.284813
Na     3.499309    -1.806961    -0.846466
Na     0.747934     0.894302    -0.584610
Na     2.190570    -2.192881    -1.979276
Na     3.218944     1.055211     0.489808
Na     2.989522     2.448154    -2.789190
Na     2.175867     3.134872    -2.379491
Na     3.631937     0.602208    -0.208401
Na    -0.510964    -2.600884     0.064300
Na     1.242714     2.299945    -1.352320
Na    -0.602802     1.011150    -1.382611
Na     4.333571    -0.314920    -0.994280
Na     2.606242     2.844227     0.753741
Na     1.347141    -0.894951    -2.064002
Na     2.165397     0.959213     1.309402
Na     1.900933    -2.090742    -0.198361
Na    -1.658190     1.081953    -0.040392
Na     2.568139     1.180949     2.075073
Na     1.972757    -1.859501     0.734938
Na     0.611281     1.836847    -0.187878
Na     1.513829    -0.128393     2.169291
Na    -1.584343    -1.207176    -0.489011
Na     2.289036     0.297016    -2.490994
Na    -0.976928     0.481991     2.529086
Na     2.107836     2.168364     0.838529
Na     2.290153    -2.562765     1.431641
Na     3.420667     2.684336     0.155661
Na     1.454177     1.831645     0.155725
Na    -1.316647     2.104830    -1.159968
Na    -1.849441     0.212601    -1.514596
Na     1.774668    -0.773475    -2.966632
Na     3.475657     2.289992     1.031451
Na    -0.423652     0.999300    -2.773747
Na    -0.891664     1.348498    -0.641390
Na     2.494722    -1.316114     2.625358
Na     1.931372     2.471386    -3.099123
Na    -0.294240    -1.404748    -2.626770
Na     0.075764     2.881168    -2.587821
Na     2.130944     1.092315    -3.210727
Na     1.294588     1.002847     3.176906
Na     1.216546     0.977823    -1.385273
Na    -2.020727     0.992795     0.845464
Na     2.657904     1.659972     1.140798
Na     3.155413    -0.793631    -2.202881
Na     0.569059     1.068419     1.207850
Na     1.302096    -0.402353     0.507089
Na     3.154120     0.678468     1.374851
Na     1.142657    -0.014747     3.074517
Na     2.027857     0.140742     0.007025
Na     0.964554     3.121062    -1.986053
Na    -0.782491     0.152591    -2.911221
Na    -0.524656     2.855762    -0.948821
Na    -0.317567    -0.518415    -2.204186
Na     1.881529     1.687204     1.838098
Na     0.189563    -0.405037     3.166263
Na    -1.020115     0.698190     0.826000
Na     0.385378     2.868460     1.099530
Na     1.418091    -2.278435     1.891362
Na    -0.401336    -1.842935    -1.791668
Na    -0.971415    -0.837580     0.233828
Na     0.284874     0.508945    -0.028679
Na     2.777526    -2.299523    -0.254218
Na     2.894570     2.508470    -0.601361
Na     1.795423     1.011544     2.240131
Na     1.169421     0.786801    -3.072686
Na     2.583471     3.038095    -1.201360
Na     2.551786    -1.351367     0.228643
Na     3.299944     0.073113     2.130960
Na     0.766956     2.067085     0.764721
Na     2.000288    -1.447905    -1.544984
Na     4.215236     1.201506    -0.408275
Na    -0.890450    -1.104406     2.079719
Na     2.215965     1.737849    -2.420728
Na    -0.339614     1.913819    -1.141006
Na     1.209027    -2.511420     0.936247
