7

P      0.152535    0.007097    0.046823
O      0.508382    1.492883   -0.097479
O      1.060918   -1.103451    0.526046
O     -1.257471   -0.029598    1.001099
O     -0.477912   -0.456645   -1.465223
H     -1.494620    0.918774    1.059376
H     -0.556458    0.399878   -1.933852
7

P      0.592095   -0.172523   -0.152940
O      0.342344    1.049716    0.731023
O      2.006503   -0.644172   -0.438167
O     -2.630389    0.763128    0.683838
O     -0.608984   -0.910294   -0.744999
H     -1.758692    1.156333    0.928634
H     -2.300645    0.043918    0.093432
