16

C     -1.250065   -0.672848    0.315252
C     -0.105663   -1.399771   -0.341727
C     -1.249978    0.673573    0.315434
C     -0.104976    1.400335   -0.341126
H     -0.227575   -1.330070   -1.446881
H     -0.227757    1.331938   -1.446545
H     -0.113721   -2.478924   -0.087770
H     -0.113959    2.479499   -0.087016
H     -2.058685   -1.244610    0.793993
H     -2.058408    1.245506    0.794361
C      1.258283    0.775967    0.051688
C      1.257974   -0.777292    0.052965
H      1.519631   -1.138916    1.067918
H      1.522025    1.138829    1.065615
H      2.038516   -1.157943   -0.637828
H      2.036763    1.155100   -0.641278
16

C     -1.742388   -0.727659    0.260704
C     -0.939707   -1.551248   -0.446613
C     -1.736772    0.739963    0.245911
C     -0.936701    1.542070   -0.488656
H     -0.168414   -1.168965   -1.131017
H     -0.179799    1.139423   -1.178082
H     -1.032737   -2.642506   -0.357208
H     -1.019798    2.635171   -0.415983
H     -2.485640   -1.191695    0.929264
H     -2.466249    1.220744    0.918299
C      2.495199    0.667273    0.263903
C      2.553205   -0.669181    0.177069
H      1.783024   -1.300372    0.644826
H      1.676863    1.169316    0.800870
H      3.371487   -1.173109   -0.359565
H      3.262607    1.304814   -0.199630
