4

O     -1.643857    0.310044    0.000000
C     -0.715227   -0.454166   -0.000001
Cl      1.006094    0.058394    0.000000
H     -0.771294   -1.563334    0.000008
4

O     -2.864445   -0.034209    0.000000
C     -1.715816   -0.034970    0.000000
Cl      1.858462    0.027577    0.000000
H      0.546226   -0.010215   -0.000001
