8

C     -1.840961    0.001936   -0.225747
C     -0.652217   -0.163243    0.387256
C      0.600496    0.136971   -0.318387
O      1.722692    0.010032    0.177209
H     -2.794500   -0.212924    0.275086
H     -1.888431    0.363514   -1.265360
H     -0.568077   -0.522584    1.424061
H      0.460024    0.502756   -1.377258
8

C     -1.510041    0.523259    0.103875
C     -0.757211   -0.575278   -0.102680
C      0.721450   -0.522416   -0.099839
O      1.388097    0.500036    0.085963
H     -2.607525    0.481256    0.100360
H     -1.011867    1.488821    0.280851
H     -1.226572   -1.555169   -0.282642
H      1.232549   -1.506968   -0.287593
