50

Ar     -1.396309      1.466600     -0.176175
Ar      1.346652      1.313714     -1.141479
Ar     -0.005957      0.422471      2.159577
Ar     -1.983516     -0.216558     -0.871214
Ar      1.866169      0.512345      0.902990
Ar     -0.095969     -0.129717     -2.107568
Ar     -1.438847     -1.014548      1.169740
Ar      1.597542     -0.891430     -0.836426
Ar      0.771730     -1.435564      1.178977
Ar     -0.438004     -1.827539     -0.672884
Ar      0.173956      1.293621      1.468424
Ar      0.866050      1.749647     -0.220638
Ar     -0.873866      0.809002      1.556384
Ar      0.246307      1.547091     -1.177411
Ar     -1.457801      0.762763     -1.041443
Ar     -1.887135      0.479872      0.006350
Ar      1.109909      1.343271      0.817451
Ar     -0.495308      0.818031     -1.651531
Ar     -1.597917      0.091514      1.039398
Ar      1.619293      0.919491     -0.117784
Ar      0.939315      0.471449      1.541711
Ar      0.628277      0.595026     -1.638071
Ar     -0.729749     -0.299786      1.676204
Ar     -1.045706     -0.174858     -1.501907
Ar     -1.723490     -0.621455      0.152234
Ar      1.478249      0.212662     -0.993210
Ar      0.384291     -0.508155      1.676607
Ar     -1.215860     -1.024673     -0.774848
Ar     -0.943651     -1.430405      0.249681
Ar     -0.268301     -0.985412     -1.398518
Ar      1.327214     -0.465128      1.047309
Ar      1.742688     -0.191369      0.033339
Ar     -0.335225     -1.232982      1.181507
Ar      0.755705     -0.514160     -1.480921
Ar      1.192660     -1.170605      0.172644
Ar      0.583355     -1.368451     -0.759963
Ar      0.167572     -1.642414      0.254761
Ar      0.111938      1.190372      0.367252
Ar     -0.480798      0.986596     -0.563749
Ar     -0.898947      0.711075      0.456748
Ar     -0.072071      0.193436      0.022694
Ar     -0.039426      0.304426      1.069306
Ar      0.623201      0.741036     -0.547843
Ar     -1.008976     -0.004279     -0.414583
Ar      0.880001      0.346998      0.454266
Ar     -0.082737      0.031833     -1.023243
Ar     -0.741841     -0.402455      0.585308
Ar      0.749337     -0.345809     -0.399274
H      0.344503     -0.612557      0.588728
H     -0.248509     -0.804037     -0.318906
50

Ar     -1.290884     -0.324451      1.142228
Ar     -0.379375     -0.537605     -0.744350
Ar      1.252452      0.029707     -0.112803
Ar      0.945774      1.927242     -0.332175
Ar      1.569331      1.035393     -0.271561
Ar      0.704371      0.405758      0.794581
Ar     -0.180185     -0.222861      0.946843
Ar      0.498578      0.919849     -0.142318
Ar     -0.175147     -1.090571      0.149954
Ar      0.866769      1.154782     -1.177447
Ar      0.369474     -0.897764      1.667887
Ar      0.310458     -1.706182      0.839357
Ar      1.019402     -0.714473     -1.540023
Ar      1.619559      0.243694     -1.087700
Ar     -0.978417      0.128962     -1.454745
Ar     -1.560387      0.469986     -0.464323
Ar     -1.414861     -0.602616     -0.665652
Ar     -0.617049     -1.268290      1.179752
Ar     -0.024211      1.725912      0.304725
Ar      0.521766      0.139839     -0.997694
Ar      1.240133     -0.223079      1.484327
Ar      0.135864      1.240655      1.263584
Ar      0.732160     -0.936593     -0.546334
Ar     -0.711564      0.530911      1.456221
Ar      1.223372      0.884688      1.631771
Ar     -0.723534     -1.546203     -0.644261
Ar     -0.099924      0.789347     -1.669187
Ar     -1.094755      1.165593     -1.282014
Ar      1.221759     -1.662449      0.142406
Ar     -1.305882     -1.145757      0.277448
Ar     -0.107643      1.598666     -0.775771
H     -0.478626      0.543293     -0.621296
Ar      0.295014      0.246971      1.785177
Ar      0.111696     -1.354207     -1.310511
Ar     -1.997405     -0.296071      0.248061
Ar     -0.049959     -0.390096     -1.811587
Ar      0.825902     -0.756705      0.579045
Ar     -0.884713      1.547508      1.017710
Ar      0.233288     -0.054515      0.039381
Ar      0.226192     -1.863589     -0.273383
Ar     -0.945737      1.407824     -0.147579
Ar     -0.339638      0.675032      0.480870
Ar     -1.379817      0.662985      0.632782
Ar     -0.599389     -0.506150      1.974053
H     -0.910478     -0.176287      0.116162
Ar      1.037097      1.436988      0.648624
Ar     -0.574956     -2.084090      0.406384
Ar     -0.878130     -1.037390     -1.635996
Ar      1.774992      0.553682      0.755318
Ar      0.836745      0.363334     -2.024522
