405

Pt     12.024877     12.024844      5.882552
Pt     14.000016     10.022338      5.923275
Pt     15.975169     12.024868      5.882535
Pt     10.022337     14.000007      5.923289
Pt     12.024875     15.975168      5.882546
Pt     14.000052     14.000005      5.823023
Pt     15.975172     15.975133      5.882534
Pt     17.977629     14.000004      5.923269
Pt     14.000022     17.977655      5.923259
Pt     11.939105      7.937101      9.897245
Pt     14.000022      5.960943      9.940182
Pt     16.060963      7.937117      9.897232
Pt      7.937085     11.939067      9.897259
Pt      9.929025      9.928995      9.892255
Pt     11.979110     11.979056      9.930486
Pt     14.000061      9.955716      9.934195
Pt     16.020983     11.979077      9.930457
Pt     18.070997      9.929034      9.892247
Pt     20.062851     11.939081      9.897246
Pt      5.960895     14.000005      9.940182
Pt      7.937079     16.060950      9.897256
Pt      9.955724     14.000004      9.934208
Pt     11.979109     16.020955      9.930491
Pt     14.000080     13.999999      9.942533
Pt     16.020975     16.020912      9.930468
Pt     18.044299     13.999995      9.934206
Pt     20.062855     16.060914      9.897250
Pt     22.038960     14.000000      9.940192
Pt      9.929008     18.071027      9.892257
Pt     11.939095     20.062918      9.897242
Pt     14.000052     18.044293      9.934194
Pt     16.060963     20.062885      9.897233
Pt     18.071011     18.070968      9.892262
Pt     14.000020     22.039058      9.940174
Pt      7.957521      7.957515     14.000014
Pt      9.978699      5.980331     14.000019
Pt     11.970605      7.946054     14.000011
Pt     14.000059      5.920230     14.000001
Pt     16.029501      7.946067     14.000014
Pt     18.021344      5.980383     14.000019
Pt     20.042439      7.957585     14.000013
Pt      5.980325      9.978693     14.000020
Pt      7.946048     11.970559     14.000013
Pt      9.930199      9.930196     13.999994
Pt     11.944995     11.944977     14.000021
Pt     14.000062      9.922425     14.000063
Pt     16.055085     11.944940     14.000027
Pt     18.069855      9.930162     13.999991
Pt     20.053883     11.970566     14.000015
Pt     22.019535      9.978704     14.000017
Pt      5.920153     14.000007     14.000000
Pt      7.946023     16.029470     14.000016
Pt      9.922454     14.000014     14.000065
Pt     11.944993     16.055037     14.000028
Pt     14.000013     14.000009     14.000006
Pt     16.055084     16.055068     14.000024
Pt     18.077613     14.000006     14.000059
Pt     20.053907     16.029439     14.000011
Pt     22.079619     13.999995     14.000003
Pt      5.980297     18.021344     14.000017
Pt      7.957492     20.042515     14.000010
Pt      9.930183     18.069826     13.999996
Pt     11.970596     20.053955     14.000012
Pt     14.000054     18.077577     14.000062
Pt     16.029502     20.053925     14.000011
Pt     18.069860     18.069837     13.999991
Pt     20.042447     20.042429     14.000011
Pt     22.019552     18.021312     14.000018
Pt      9.978688     22.019677     14.000014
Pt     14.000058     22.079767     13.999998
Pt     18.021334     22.019607     14.000016
Pt     11.939092      7.937119     18.102774
Pt     14.000026      5.960933     18.059850
Pt     16.060982      7.937131     18.102778
Pt      7.937109     11.939048     18.102763
Pt      9.929051      9.929022     18.107832
Pt     11.979175     11.979120     18.069661
Pt     14.000063      9.955751     18.065784
Pt     16.020919     11.979146     18.069684
Pt     18.070973      9.929058     18.107829
Pt     20.062823     11.939065     18.102767
Pt      5.960895     14.000003     18.059854
Pt      7.937096     16.060961     18.102763
Pt      9.955756     14.000006     18.065784
Pt     11.979165     16.020893     18.069667
Pt     14.000077     14.000003     18.057808
Pt     16.020926     16.020863     18.069688
Pt     18.044265     14.000003     18.065776
Pt     20.062830     16.060931     18.102769
Pt     22.038952     13.999998     18.059846
Pt      9.929032     18.070992     18.107835
Pt     11.939079     20.062893     18.102778
Pt     14.000059     18.044260     18.065794
Pt     16.060985     20.062865     18.102789
Pt     18.070981     18.070939     18.107833
Pt     14.000022     22.039058     18.059857
Pt     12.024948     12.024879     22.117480
Pt     14.000023     10.022376     22.076756
Pt     15.975123     12.024918     22.117488
Pt     12.024944     15.975122     22.117484
Pt     14.000061     14.000003     22.176938
Pt     15.975125     15.975082     22.117498
Pt     17.977600     13.999999     22.076761
Pt     14.000021     17.977623     22.076773
Pt     10.022372     14.000000     22.076776
Au     14.000012      5.903784      5.889053
Au     13.999961      8.022681      4.013761
Au     16.174131      7.807071      5.790183
Au      7.807081     11.825877      5.790191
Au      9.806514      9.806498      5.774553
Au      9.984644     11.976899      3.925877
Au     11.976910      9.984627      3.925867
Au     14.000030     11.992415      3.757043
Au     16.023121      9.984615      3.925866
Au     18.193501      9.806500      5.774543
Au     18.015380     11.976888      3.925865
Au     20.192891     11.825875      5.790178
Au      5.903814     14.000009      5.889054
Au      8.022670     14.000001      4.013689
Au      7.807106     16.174079      5.790235
Au      9.984659     16.023115      3.925849
Au     11.992446     13.999999      3.757039
Au     14.000025     16.007587      3.757028
Au     16.007608     13.999996      3.757036
Au     18.015372     16.023109      3.925839
Au     19.977232     13.999995      4.013828
Au     20.192891     16.174067      5.790219
Au     22.096145     14.000004      5.889074
Au      9.806518     18.193511      5.774546
Au     11.976914     18.015381      3.925835
Au     11.825898     20.192940      5.790157
Au     13.999966     19.977298      4.013728
Au     16.023128     18.015366      3.925827
Au     16.174083     20.192915      5.790202
Au     18.193503     18.193491      5.774547
Au     14.000025     22.096200      5.889028
Au     11.986556      3.885962      9.956832
Au     14.000017      3.997488      7.981058
Au     16.013484      3.885952      9.956822
Au      7.795980      7.795967      9.790306
Au      9.823143      5.795638      9.800795
Au      9.839678      7.829819      7.825334
Au     11.872122      5.859292      7.854338
Au     14.000024      7.934943      7.909964
Au     16.127915      5.859280      7.854327
Au     18.176876      5.795634      9.800778
Au     18.160339      7.829803      7.825328
Au     20.204004      7.795970      9.790271
Au      3.885965     11.986535      9.956800
Au      5.795645      9.823114      9.800783
Au      5.859293     11.872096      7.854315
Au      7.829821      9.839670      7.825323
Au      9.925752     11.927471      7.879615
Au     11.927498      9.925729      7.879618
Au     14.000046     11.974249      7.933981
Au     16.072551      9.925725      7.879606
Au     18.074284     11.927466      7.879621
Au     20.170163      9.839662      7.825339
Au     22.204296      9.823118      9.800766
Au     22.140646     11.872102      7.854340
Au     24.113929     11.986531      9.956799
Au      3.997510     14.000003      7.981036
Au      3.885959     16.013477      9.956810
Au      5.859293     16.127913      7.854324
Au      7.934956     13.999997      7.909979
Au      9.925763     16.072535      7.879630
Au     11.974280     13.999999      7.933980
Au     14.000044     16.025753      7.933967
Au     16.025768     13.999999      7.933987
Au     18.074276     16.072522      7.879638
Au     20.065034     13.999989      7.909997
Au     22.140648     16.127895      7.854358
Au     24.002402     14.000000      7.981066
Au     24.113935     16.013471      9.956822
Au      5.795614     18.176892      9.800781
Au      7.829816     18.160342      7.825313
Au      7.795956     20.204049      9.790292
Au      9.839669     20.170200      7.825313
Au     11.927496     18.074287      7.879609
Au     14.000016     20.065052      7.909965
Au     16.072547     18.074263      7.879616
Au     18.160352     20.170187      7.825325
Au     20.170174     18.160335      7.825344
Au     20.204031     20.204027      9.790281
Au     22.204322     18.176866      9.800782
Au      9.823126     22.204371      9.800776
Au     11.872115     22.140708      7.854311
Au     11.986548     24.114022      9.956809
Au     14.000025     24.002484      7.981024
Au     16.127932     22.140700      7.854315
Au     16.013497     24.114025      9.956797
Au     18.176890     22.204359      9.800772
Au      8.048850      3.999399     14.000003
Au      9.966454      3.916323     11.954588
Au     11.991135      3.806554     14.000015
Au     14.000000      3.815502     12.000879
Au     16.008931      3.806575     14.000013
Au     18.033580      3.916326     11.954581
Au     19.951155      3.999400     13.999999
Au      3.999396      8.048878     14.000008
Au      5.958735      5.958761     14.000003
Au      5.847956      7.849641     11.858366
Au      7.849653      5.847972     11.858371
Au      9.923275      7.907093     11.913938
Au     11.985436      5.918654     11.965909
Au     14.000049      7.942499     11.949130
Au     16.014630      5.918653     11.965920
Au     18.076770      7.907104     11.913955
Au     20.150329      5.847970     11.858388
Au     22.041223      5.958778     13.999996
Au     22.151980      7.849674     11.858382
Au     24.000502      8.048908     13.999996
Au      3.916334      9.966435     11.954559
Au      3.806497     11.991092     14.000011
Au      5.918627     11.985401     11.965922
Au      7.907098      9.923244     11.913935
Au      9.938971     11.959433     11.950356
Au     11.959473      9.938961     11.950336
Au     14.000045     11.965963     11.990615
Au     16.040625      9.938917     11.950339
Au     18.061092     11.959419     11.950326
Au     20.092874      9.923251     11.913943
Au     22.081229     11.985401     11.965910
Au     24.083559      9.966454     11.954566
Au     24.193213     11.991092     14.000016
Au      3.815441     14.000005     12.000873
Au      3.806483     16.008909     14.000012
Au      5.918610     16.014618     11.965924
Au      7.942499     14.000013     11.949134
Au      9.938961     16.040586     11.950355
Au     11.966002     14.000010     11.990638
Au     14.000039     16.034049     11.990615
Au     16.034073     14.000002     11.990588
Au     18.061085     16.040578     11.950341
Au     20.057466     14.000006     11.949134
Au     22.081245     16.014599     11.965916
Au     24.184289     13.999991     12.000862
Au     24.193228     16.008880     14.000017
Au      3.916307     18.033586     11.954573
Au      3.999366     19.951173     14.000001
Au      5.847936     20.150385     11.858347
Au      7.907077     18.076776     11.913937
Au      9.923255     20.092923     11.913933
Au     11.959457     18.061067     11.950325
Au     14.000048     20.057499     11.949124
Au     16.040622     18.061088     11.950339
Au     18.076776     20.092888     11.913952
Au     20.092887     18.076743     11.913953
Au     22.151991     20.150329     11.858386
Au     24.083581     18.033552     11.954595
Au     24.000521     19.951128     14.000004
Au      5.958718     22.041273     13.999997
Au      7.849629     22.152042     11.858350
Au      8.048837     24.000604     13.999999
Au      9.966445     24.083667     11.954579
Au     11.985432     22.081347     11.965903
Au     11.991142     24.193427     14.000008
Au     14.000005     24.184473     12.000854
Au     16.014638     22.081333     11.965906
Au     16.008931     24.193402     14.000011
Au     18.033592     24.083652     11.954581
Au     20.150341     22.152018     11.858383
Au     19.951157     24.000581     14.000003
Au     22.041233     22.041237     14.000002
Au      9.966444      3.916312     16.045427
Au     11.986549      3.885943     18.043185
Au     14.000001      3.815490     15.999151
Au     16.013491      3.885927     18.043191
Au     18.033592      3.916310     16.045423
Au      5.847940      7.849634     16.141653
Au      7.849647      5.847951     16.141644
Au      7.795974      7.795954     18.209724
Au      9.823136      5.795619     18.199213
Au      9.923272      7.907059     16.086063
Au     11.985405      5.918638     16.034099
Au     14.000051      7.942568     16.050857
Au     16.014665      5.918636     16.034088
Au     18.176887      5.795604     18.199223
Au     18.076774      7.907066     16.086047
Au     20.150340      5.847946     16.141621
Au     20.204014      7.795956     18.209741
Au     22.151998      7.849661     16.141618
Au      3.916324      9.966430     16.045455
Au      3.885948     11.986532     18.043219
Au      5.795623      9.823101     18.199229
Au      5.918613     11.985370     16.034084
Au      7.907065      9.923241     16.086066
Au      9.938945     11.959483     16.049680
Au     11.959525      9.938934     16.049694
Au     14.000042     11.965898     16.009411
Au     16.040571      9.938899     16.049676
Au     18.061109     11.959472     16.049687
Au     20.092906      9.923246     16.086059
Au     22.204320      9.823123     18.199163
Au     22.081237     11.985364     16.034101
Au     24.083564      9.966440     16.045436
Au     24.113934     11.986517     18.043215
Au      3.815429     14.000003     15.999154
Au      3.885943     16.013481     18.043203
Au      5.918595     16.014648     16.034084
Au      7.942571     14.000012     16.050857
Au      9.938931     16.040533     16.049682
Au     11.965933     14.000008     16.009397
Au     14.000040     16.034118     16.009418
Au     16.034139     14.000006     16.009435
Au     18.061112     16.040530     16.049684
Au     20.057389     14.000003     16.050853
Au     22.081252     16.014631     16.034095
Au     24.184290     13.999990     15.999176
Au     24.113939     16.013472     18.043197
Au      3.916299     18.033595     16.045435
Au      5.795596     18.176901     18.199227
Au      5.847917     20.150393     16.141660
Au      7.907041     18.076776     16.086063
Au      7.795947     20.204050     18.209734
Au      9.923251     20.092955     16.086067
Au     11.959510     18.061082     16.049699
Au     14.000048     20.057430     16.050863
Au     16.040572     18.061100     16.049680
Au     18.076781     20.092921     16.086050
Au     20.092915     18.076747     16.086047
Au     20.204020     20.204020     18.209753
Au     22.204326     18.176874     18.199230
Au     22.151998     20.150331     16.141626
Au     24.083581     18.033558     16.045417
Au      7.849622     22.152058     16.141656
Au      9.823111     22.204390     18.199227
Au      9.966434     24.083678     16.045424
Au     11.985400     22.081362     16.034099
Au     11.986538     24.114040     18.043201
Au     14.000001     24.184485     15.999169
Au     16.014670     22.081348     16.034099
Au     16.013501     24.114043     18.043213
Au     18.176876     22.204381     18.199171
Au     18.033602     24.083659     16.045430
Au     20.150345     22.152031     16.141630
Au     14.000018      3.997498     20.018923
Au      9.839694      7.829825     20.174685
Au     11.872138      5.859274     20.145665
Au     11.825906      7.807073     22.209788
Au     14.000014      5.903752     22.110920
Au     14.000030      7.934914     20.090008
Au     16.127902      5.859257     20.145669
Au     16.174118      7.807064     22.209782
Au     18.160321      7.829812     20.174671
Au      5.859267     11.872100     20.145683
Au      7.829831      9.839668     20.174684
Au      7.807085     11.825871     22.209788
Au      9.806534      9.806497     22.225409
Au      9.925752     11.927412     20.120370
Au     11.927455      9.925731     20.120380
Au     14.000051     11.974349     20.065956
Au     16.072598      9.925726     20.120387
Au     18.193482      9.806510     22.225411
Au     18.074280     11.927424     20.120373
Au     20.170144      9.839676     20.174659
Au     20.192880     11.825883     22.209786
Au     22.140647     11.872111     20.145652
Au      3.997515     14.000000     20.018937
Au      5.903790     13.999997     22.110920
Au      5.859260     16.127892     20.145681
Au      7.934923     13.999998     20.090019
Au      7.807085     16.174116     22.209787
Au     11.825889      7.807076      5.790184
Au      9.925745     16.072592     20.120370
Au     11.974413     14.000004     20.065918
Au     14.000050     16.025662     20.065969
Au     16.025683     14.000004     20.065950
Au     18.074287     16.072577     20.120380
Au     20.065059     13.999997     20.089987
Au     20.192888     16.174105     22.209797
Au     22.096153     13.999992     22.110906
Au     22.140652     16.127871     20.145654
Au     24.002374     13.999993     20.018916
Au      7.829817     18.160333     20.174689
Au      9.806530     18.193495     22.225418
Au      9.839680     20.170175     20.174696
Au     11.927450     18.074275     20.120388
Au     11.825903     20.192916     22.209804
Au     14.000028     20.065085     20.090019
Au     16.072601     18.074276     20.120404
Au     16.174120     20.192918     22.209809
Au     18.193489     18.193479     22.225432
Au     18.160332     20.170178     20.174692
Au     20.170153     18.160311     20.174672
Au     11.872122     22.140719     20.145686
Au     14.000011     22.096220     22.110948
Au     14.000018     24.002473     20.018948
Au     16.127909     22.140720     20.145694
Au     14.000017      8.022812     23.985993
Au      9.984665     11.976861     24.074044
Au     11.976885      9.984627     24.074064
Au     14.000036     11.992367     24.242720
Au     16.023161      9.984622     24.074056
Au     18.015357     11.976839     24.074056
Au      8.022789     13.999994     23.986075
Au      9.984658     16.023130     24.074053
Au     11.992404     13.999996     24.242727
Au     14.000034     16.007627     24.242731
Au     16.007657     13.999996     24.242722
Au     18.015364     16.023148     24.074071
Au     19.977143     13.999991     23.986009
Au     11.976876     18.015362     24.074085
Au     14.000014     19.977169     23.986027
Au     16.023166     18.015362     24.074083
405

Au     28.892443      2.915338      6.814229
Au     33.839509      3.876576     -2.389091
Au     26.548647     -0.987399     -1.053103
Pt     17.240897      4.157131     -3.984359
Au     21.921925     -7.706594      6.577154
Au     21.869892      9.343855     -6.780191
Au     21.896553     -3.946355     10.000348
Au     21.863724      3.917508     -8.556472
Au     24.396744     -5.096782      9.101655
Au     17.278473     -8.123844     -2.114219
Au     14.658418      1.273266      1.154696
Au     17.242023     -6.816419      3.464936
Au     33.710835     -2.085450      3.671621
Pt     26.552914      5.092839     -7.180399
Au     31.302991     -6.036765     -4.254628
Pt     26.546098      1.081676     -3.094530
Au     26.602665      3.075720     -5.109248
Au     33.522197     -4.134370      5.620466
Pt     26.631548     -1.702573     -3.842805
Au     19.600444     -6.486904     -2.610556
Au     26.645255     -6.206815      7.926610
Au     26.703040    -11.056794     -1.221051
Au     17.235767      0.757686     -7.603445
Au     17.214278     -0.603573     -2.659257
Au     24.277916     10.613111      0.188237
Pt     24.106527      4.482862      6.326694
Pt     26.496469      1.213222      7.237607
Au     14.881602      6.137168     -0.128466
Pt     19.468288      5.293624      3.152685
Au     19.546807     -0.396640     -8.910317
Au     17.255247      3.474370     -6.888782
Pt     24.234194      4.205895     -4.021289
Pt     19.523771      2.518886      2.413618
Pt     28.984741     -0.603149      3.286046
Au     24.439789     -6.973761     -7.039870
Au     19.557864      0.528053      4.449832
Au     31.377457     -0.452425     -2.650996
Au     19.643466     -2.506960     -6.682000
Au     19.697043     -9.292450     -3.245711
Pt     19.523864      1.199260      7.225144
Au     19.620976     -5.300504     -7.368586
Au     22.015620     -6.418523     -8.491224
Au     21.986409     -6.944706     -0.953280
Au     24.105997      5.557989     -9.024334
Au     29.083111     -8.902241      1.054072
Pt     26.621375     -5.689551      0.182773
Pt     26.557952      3.871113     -2.412544
Au     31.320975     -3.006592      7.031338
Au     26.739241     -9.305865     -3.374988
Au     31.215930     -0.286824      7.803246
Au     19.542935      1.800286     -0.380870
Au     14.912251     -2.700277      5.202196
Au     21.939481      2.670931     -3.639319
Au     26.444051      8.797158      6.618356
Pt     26.628049     -0.196513      1.661144
Au     24.251608    -10.265882     -0.023976
Au     26.564924     -1.087686    -11.245407
Pt     26.689580     -0.330521     -8.628077
Au     31.336387     -8.042704     -2.069569
Au     29.104417     -7.735620     -3.917638
Au     33.549441     -6.301194     -2.504368
Au     28.936209     -0.045230     -4.228374
Au     19.601889     -1.039065     -1.115040
Au     26.555364      9.643001     -1.011982
Au     24.079797      7.376218      7.264228
Au     24.275426     -1.836503      2.106399
Au     28.924230     -7.394284      6.547830
Au     21.942725      0.132458      6.045812
Au     21.950749     -2.669646      5.308279
Au     29.011430     -1.900563      8.285533
Au     17.114584      6.506970      4.366739
Au     29.072062     -3.775891     -7.947417
Pt     17.134756      2.860356      0.844303
Au     19.490865      7.238169      1.147063
Pt     24.362881     -4.098315     -6.231039
Au     24.234062     -5.806819      6.131273
Au     24.265069     -3.120652      7.009321
Au     24.236296     -0.504304     -2.666926
Au     28.839520      6.658053     -7.565185
Au     21.873266      8.174830     -2.070934
Au     33.551478      6.710473     -1.599885
Au     26.540403      1.802369     -0.320326
Au     24.249217      9.104382     -5.300333
Pt     21.918319      7.416158     -4.814206
Au     21.922406     -1.590914     -9.951149
Au     24.227632     -4.579226      1.345634
Au     21.991489    -10.307396     -4.409222
Au     26.569368      7.360586      1.094390
Au     14.786032     -0.163421     -4.291068
Au     17.187287      7.040999     -3.304404
Pt     28.985284      1.920539     -6.414461
Au     31.182034      3.789869      3.614489
Pt     28.856024      6.277480     -0.104795
Au     28.880536      0.108942      6.077012
Au     19.471806      6.164646      5.978020
Au     21.893649     10.947990     -1.409120
Pt     19.541680      6.563607     -1.646158
Au     21.907052     -9.137619      1.112768
Au     31.330026     -7.305375      0.694773
Pt     24.230185      7.030084     -3.257306
Au     14.911850      5.273661     -2.776179
Au     26.681540     -2.481141     -6.620725
Au     33.850279     -0.092770      1.684750
Au     21.877138     -1.434320      0.459349
Au     31.130908      2.456169      8.331742
Pt     17.179967      5.604390      1.566019
Au     19.547792      3.054561     -5.241277
Au     33.542871      3.154652     -5.105189
Au     24.377169    -10.817471     -2.891547
Au     21.882134     -5.526180      4.526248
Pt     19.532286      3.806286     -2.439212
Au     28.866298      4.237771      1.911578
Au     31.197543      5.043270     -1.177346
Au     33.658666     -5.651090      0.185929
Au     17.141144     -3.112096      7.014392
Pt     17.186749      0.127566      0.077931
Au     21.884152      5.357460     -2.865911
Au     31.298273     -4.544936      1.367904
Au     29.002112     -9.589704     -1.683693
Au     19.474318      9.986212      1.851294
Au     21.868714      1.375444      1.193986
Au     17.101271      4.522405      6.490891
Pt     21.817418      4.914010      4.804875
Pt     31.160980      4.273116     -3.951296
Pt     31.192882     -1.038622      4.902954
Au     15.094626     -5.410380      4.434448
Au     24.271260     -8.692026      5.398929
Au     31.315410      0.839781     -7.570559
Au     19.471056      4.197509      8.113639
Pt     24.123954      8.465198      2.235470
Au     31.322784     -6.550690      3.377661
Pt     21.948095     -3.427483      2.554500
Au     19.416716      8.577357     -3.681731
Au     26.679592    -10.522611      1.559021
Au     26.644825      0.328328     -5.830705
Pt     26.692607      2.368362     -7.841983
Au     14.969679      1.767131     -6.259225
Au     31.261004     -1.986142     -8.204927
Au     28.896603      7.737318      5.510213
Au     31.220758      6.267117     -5.981268
Au     31.192279      6.569420      4.331215
Au     26.523461     10.703669      4.564557
Au     31.308338     -1.773790      2.047346
Au     26.714258     -9.767468      4.247986
Au     19.551425     -2.297650      3.717928
Au     33.754215     -0.863616     -1.086184
Au     24.308941     -6.048174     -4.188725
Au     24.153354      3.717529      3.559913
Pt     28.882292      4.924762      4.728547
Au     15.105413     -6.956667     -0.936433
Au     33.572740      5.422093      3.182924
Au     21.898762     -4.193454     -0.191977
Au     26.605250      8.760517     -3.673615
Au     24.354140     -2.370774      9.859693
Pt     19.544235     -3.001011      0.890388
Au     29.003090      1.210760     -9.206288
Au     31.299494      7.242878     -3.292123
Au     17.198198      2.374202      8.317195
Au     21.826110      6.954825      2.791013
Au     24.252460      7.817473     -0.541935
Au     33.608014     -4.932550      2.937122
Au     24.271361     -7.890999      8.169353
Pt     24.291835     -5.376816     -1.442302
Pt     26.619759     -2.931665      0.928543
Au     26.732137     -6.449882     -2.659845
Au     21.711433      7.811687      5.678043
Pt     31.219531     -3.740708      4.076068
Au     33.442209      5.878353     -4.337868
Au     14.704586      4.015484      1.948509
Pt     21.939309     -2.157271     -2.297900
Pt     21.882193      1.900204     -6.437382
Au     24.279104     -3.356235     -3.435609
Au     21.941881     -9.855578     -1.683452
Au     14.743560      2.537486     -3.545994
Au     28.972947     -2.602509      5.352240
Au     24.239351      0.979031      2.809291
Au     26.719332     -5.300746     -7.463005
Au     33.443665      7.296458      1.116622
Pt     24.219094      1.693778      5.631760
Pt     17.260449      1.619015      5.565190
Au     26.636909      1.639563    -10.609660
Au     14.677875     -3.431355      2.496086
Au     26.774350     -3.308440     -9.518270
Pt     26.604484     -1.457401      6.546250
Pt     29.003180     -2.119937     -2.258572
Au     21.974939     -2.852913     -5.035719
Au     28.923163     -5.349231      4.523326
Pt     17.288800     -1.163307      4.851683
Au     17.181924      0.858184      2.806378
Au     14.887632      0.046786      5.958483
Au     21.908574      1.539692     11.389292
Pt     24.232218      3.040929      0.843584
Au     19.464138      5.062933     -7.462915
Au     28.830246      9.710511      3.416735
Au     17.233635     -6.178766     -4.209315
Au     28.933376      0.812791      9.030786
Au     24.382967     -4.910489     -8.990701
Au     19.492511      7.803980     -6.497572
Pt     21.930997     -4.599647      7.286708
Pt     17.296859      1.423415     -4.700557
Au     14.880459      4.856182      4.762796
Au     17.359809     -5.853713      6.157624
Au     33.712898      4.584185      0.424982
Pt     19.480738     -1.493868      6.520625
Au     15.033459      4.529010     -5.528156
Au     33.554243      0.384225     -5.831653
Au     26.593631     -2.168313      3.769892
Au     24.338003     -2.777700    -11.023070
Pt     24.299833      1.451858     -4.733621
Pt     21.871728      4.603354     -5.682622
Au     19.514002      1.967755      9.914946
Au     26.562036      4.631307      0.380645
Au     26.578852     -4.984883      3.014201
Pt     24.210716     -6.591175      3.426157
Au     26.802227     -7.315731     -5.498652
Au     33.817999      2.636568      2.380406
Au     31.226337     -5.721343      6.142059
Au     24.261774      6.237197     -6.041956
Au     24.049276      9.298668      5.135719
Au     14.732529     -1.407314      0.521668
Au     31.196455      4.555483      6.419465
Pt     22.019988     -7.605215     -3.709976
Pt     26.518018      5.302407      3.137835
Au     24.346102     -2.054707     -8.255384
Au     19.534754      3.251246      5.248868
Au     19.538569     -8.021384      2.219051
Au     26.598463      5.886162     -4.473279
Au     19.535981      2.329671     -8.125712
Au     17.269661     -4.211894     -6.288969
Au     22.035208     -5.689346     -5.750762
Pt     17.323653     -5.352311     -1.353746
Au     28.952417     -1.594186     -9.741470
Pt     28.859571      2.118388      3.951988
Pt     19.658641     -4.533781     -4.587104
Pt     31.284881     -5.246641     -1.426685
Au     33.497416     -2.360654     -6.476556
Au     31.328711      2.289683     -1.916891
Pt     26.581238     -4.175265      5.805346
Au     24.419211     -8.870932     -5.048433
Au     19.594232     -7.243308      4.996386
Pt     24.280802     -1.285275     -5.482458
Au     28.902610      8.429116     -2.120992
Au     28.896198      9.139569      0.645321
Au     31.296029      3.552505     -6.847886
Pt     31.267530     -1.131420     -5.432236
Au     22.018800     -4.312337    -10.403935
Au     21.755926      3.761763      9.626934
Au     17.287010      6.186930     -6.026703
Pt     21.805763     -1.895912      8.059001
Au     21.859702      1.178367     -9.223737
Pt     21.855996      6.089223     -0.095330
Au     26.627712     -7.710352      2.246589
Au     14.950273      6.754606      2.688512
Au     24.242669     10.020755     -2.540172
Au     33.818770     -1.603552     -3.789728
Au     21.971207     -6.638705      9.180821
Au     33.803412      1.188891     -3.069309
Au     19.523105      5.765674     -4.417789
Au     24.117004      5.293186      9.199707
Au     19.399916      8.176167      4.026385
Au     33.770463      0.664331      4.409598
Au     24.132079      3.198034     11.159012
Au     24.231581      2.439559      8.361470
Au     14.609666     -0.756476      3.185221
Au     26.601280      2.019502     10.022787
Pt     21.868687      8.837683      0.717332
Au     28.987183      7.701222     -4.841632
Au     24.247973      3.470506     -6.808425
Au     33.893208     -2.835616      0.980579
Au     21.869610      6.680377     -7.773203
Au     24.151282     11.210439      2.966687
Au     26.539641      4.373782     -9.931803
Au     17.218385      4.898020     -1.212707
Au     19.535790      4.471884      0.353253
Au     29.036658     -4.662761      7.565421
Au     24.176969      0.055627    -10.429059
Au     29.038234     -8.193007      3.846716
Pt     28.941254      0.713923     -1.575979
Au     21.896798      4.118764      1.958763
Pt     19.530142      1.017595     -3.187235
Pt     28.889233     -3.356051      2.536176
Au     28.947863     -6.812145     -1.007246
Pt     24.246906     -1.061506      4.914542
Au     24.207351      8.304127     -8.066097
Au     31.131790      8.517800      2.314242
Au     17.203600     -1.829363      2.042820
Pt     28.867972      3.490445     -0.834128
Au     14.926626     -5.002586     -2.998978
Pt     31.125053      1.749249      5.601657
Pt     28.914168     -0.714310     -7.036386
Au     26.567957      0.549175      4.430681
Pt     24.297446     -2.575763     -0.685518
Au     28.931694      1.433052      1.265408
Pt     24.245587     -3.810611      4.123843
Au     19.439116      9.407149     -0.961183
Au     22.072891     -8.367077     -6.479084
Pt     21.934413     -6.222293      1.824202
Pt     21.930850     -0.671483      3.261031
Pt     17.290785     -3.831101      4.109179
Pt     26.612349     -8.455657     -0.519306
Au     26.463137      6.873654      8.689091
Pt     17.173562     -2.561645     -0.663459
Au     26.563092      7.006163     -9.042244
Au     28.970089      3.977776     -8.440836
Au     26.627299     -0.765693      9.403490
Pt     21.899736      0.809876      8.761370
Au     26.565414     -8.878587      6.931512
Au     28.933855     -4.044096     -0.267051
Pt     26.478757      8.076314      3.887580
Au     14.604604      3.321184     -0.749219
Au     28.995340     -2.825510     -5.118250
Au     33.798409      1.834063     -0.371744
Au     24.122588      6.501121      4.402541
Au     17.338352     -7.502051      0.705353
Pt     21.896459      2.127826      3.976988
Au     19.429324     -0.819873      9.325513
Au     17.165913     -0.427810      7.668046
Pt     26.466614      4.079045      7.956431
Pt     28.907366      4.665194     -5.564156
Au     21.837101     10.184229     -4.151521
Au     24.199929      2.860421     -9.769468
Au     14.830310     -4.171378     -0.273141
Au     31.281150     -3.180708     -3.413739
Au     14.628031      2.012695      3.926837
Au     28.988811     -1.358405      0.487621
Pt     24.275523      0.253349      0.018151
Au     26.501354      6.033742      5.921955
Pt     24.219082      5.796167      1.501432
Au     17.301209     -4.619950      1.380843
Pt     19.656292     -1.720413     -3.901989
Au     17.197440      7.729706     -0.531748
Au     28.945452      5.507004     -2.876528
Au     28.872751      6.968063      2.695080
Au     28.947020      2.684236     -3.506238
Au     15.004263      2.791330      6.684901
Pt     31.291738     -2.411910     -0.703856
Au     19.621658     -6.301157      7.728499
Au     21.869834      2.900994      6.839741
Au     17.351947     -2.032517     -8.201773
Au     28.892355      5.707666      7.570444
Au     19.620771     -3.753519     -1.846945
Au     26.661212     -3.561232      8.698637
Pt     29.003378     -6.153859      1.822168
Au     21.811526     11.554093      1.395618
Pt     19.607427     -4.245302      5.781925
Pt     26.611786      6.648384     -1.683797
Pt     21.973844     -3.634416     -7.818136
Pt     31.150965      5.806726      1.508977
Au     19.643764     -7.281931     -5.406662
Au     26.657634      8.074512     -6.491904
Au     15.113493     -0.964753     -7.023119
Au     17.155595      8.391976      2.248221
Pt     26.702852     -4.500209     -4.613126
Pt     31.336083      0.290317      0.094902
Au     19.542355     -8.769304     -0.450470
Au     17.208008      3.643832      3.536921
Au     14.976477     -2.962691     -4.965792
Au     14.691138     -2.182493     -2.219764
Au     24.286859     -0.378311      7.732072
Pt     19.532818     -0.231502      1.679081
Au     21.876229     -1.228994     10.723878
Pt     28.958389     -4.862103     -3.070518
Au     26.591300     10.229087      1.813261
Pt     17.368417     -1.309678     -5.477311
Pt     31.226471      1.515164     -4.797940
Pt     31.314004      2.974929      0.789139
Au     33.502776      3.363852      5.191618
Pt     21.924965      0.631475     -1.520542
Pt     21.996061     -4.861809     -2.960857
Au     31.354243     -4.114033     -6.332346
Au     24.209324      0.751390     -7.543059
Au     24.249488      2.191220     -2.000432
Au     17.133582      2.168679     -2.001431
Au     19.509945     -3.600584      8.607318
Au     26.439346      4.794539     10.555194
Au     29.002099     -5.765700     -5.826928
Au     21.878215     -0.091780     -4.296767
Au     17.309256     -3.326920     -3.382662
Au     31.153918      7.991939     -0.492425
Au     14.645737      0.512473     -1.489867
Au     33.749121     -3.598523     -1.831247
Au     19.653218     -3.272253     -9.412916
Au     33.523167     -1.404605      6.418493
Au     31.292215      0.989766      2.820661
Au     19.631809      0.258212     -5.954104
Pt     26.561008      2.633941      2.463805
Au     26.606704     -3.687331     -1.889472
Pt     21.819742      3.427625     -0.841057
Au     21.813359      5.714926      7.610059
Au     33.411335      1.388624      7.132189
Au     24.232789      5.048662     -1.269444
Au     24.275869     -9.530914      2.689424
Pt     19.600336     -5.807295      0.208760
Pt     21.991842     -0.844109     -7.086845
Au     33.687461     -4.336774     -4.571891
Pt     26.582952     -6.923281      4.957766
Au     28.898282      3.697732      9.489085
Au     24.349088      0.326217     10.538893
Au     21.902158     -8.329601      3.890810
Au     21.772121      9.741043      3.573968
Au     26.498731      3.319494      5.162568
Pt     24.351075     -8.009562     -2.156127
Au     19.624760     -5.112143      2.981460
Au     24.254071     -7.409561      0.654228
Au     14.946230     -6.251227      1.736556
