188

Co    2.348610    -1.449680     0.806481
Co   -0.044361     1.699620     0.341300
Co    1.521450     0.685522     0.043848
Co   -0.063187     0.869541    -2.813160
Co    0.863624     0.760682     1.812830
Co   -0.291302    -0.635829    -0.707356
Co    0.872006    -0.919258     1.461610
Co    2.515230     0.568484    -1.335960
Co   -0.302685    -0.053050    -2.588640
Co    0.565712    -0.736418    -0.215644
Co    1.645300    -1.941250     0.312793
Co    0.194881     2.627130     0.105383
Co   -1.284510     0.380850     2.235620
Co   -1.924960    -0.011966    -2.020350
Co   -0.039288     0.010288    -0.009432
Co    1.821800     0.481668     1.731890
Co    1.668800     0.688866    -1.846140
Co    1.968770     0.210427     0.778973
Co   -2.576840     0.352422    -1.383410
Co    2.668320     0.664001     1.273730
Co   -0.293844    -0.337569    -1.645450
Co    1.608000     1.885240     0.756767
Co    0.441472     2.177710    -1.419070
Co    1.775460    -1.902660    -1.578010
Co    0.611042     1.490890     2.417410
Co   -0.049982     0.599162    -1.883880
Co   -0.538927    -1.574650    -0.471689
Co    1.668550     0.399007    -0.898458
Co   -0.973550     0.004847    -1.005250
Co    1.113020     1.701910     1.591160
Co    1.421530    -0.537758    -0.661130
Co    1.333630    -1.359580     2.189650
Co    0.562324    -0.436061    -1.150480
Co    0.159195     1.974430     1.680650
Co    0.315482    -1.077010    -1.852160
Co   -2.830100    -0.850140    -0.206225
Co   -0.812293    -0.079292     2.959690
Co    2.229290     1.146450     0.547736
Co    1.412240     0.030036    -2.538590
Co   -1.522810    -0.542506     2.460660
Co   -0.782055    -2.497770    -0.230916
Co    2.057520     1.402640     1.494290
Co    2.738610    -0.805111    -0.352209
Co    0.785877    -2.141460     0.757943
Co   -2.162140    -0.923603    -1.781040
Co    1.308410     0.304234     2.560110
Co    2.596720    -0.533273     0.576706
Co    1.580940    -0.438355     1.963570
Co    0.813457     0.507013    -1.396460
Co   -2.415310    -0.773297     0.693759
Co    1.265630    -0.258942     0.280748
Co    2.120640    -0.066455    -0.160525
Co    1.116830     0.017883     1.224440
Co   -0.288302    -0.932386     0.228219
Co   -1.225430    -0.637381    -1.706070
Co   -0.564579     0.840393     2.737640
Co   -1.437560     1.561900    -1.545870
Co    1.059880     1.439860    -1.638700
Co    0.328458    -0.789513    -2.790660
Co   -0.747602     2.333360     0.046453
Co   -0.535103    -1.867810     0.464123
Co   -1.479940    -1.873060    -0.541628
Co   -0.978737     1.398450     0.281583
Co   -0.537287    -0.186764     0.815891
Co   -2.824760    -0.564733    -1.147280
Co   -0.784047    -1.891570    -2.115600
Co    0.413038     1.237170     1.080570
Co    1.876300    -0.999266     0.074740
Co    2.186930    -1.173820     1.737000
Co   -1.459880    -2.157890     0.400401
Co    2.256800    -0.065186    -2.042290
Co    0.189742     1.528140    -2.120930
Co   -1.044670     1.300610     2.003130
Co   -0.575021    -0.835217     2.389850
Co    2.829580     0.386212     0.343621
Co   -0.802851     2.218670     1.762800
Co   -0.327364    -1.586860     1.798630
Co    1.363350     0.955306     0.989343
Co    1.025650    -1.206080     0.521009
Co    2.438900    -0.258584     1.502220
Co   -0.981808     0.293798    -1.941190
Co   -0.542953    -0.972799    -2.356250
Co    0.814593     0.209889    -0.454562
Co    0.808936     0.789449    -2.338820
Co   -1.986000     1.006000     1.923970
Co   -0.304413     2.429250     0.935714
Co   -1.000410     0.577496    -2.867800
Co   -2.656610    -0.020643     1.281400
Co   -1.219230     0.453292     0.515927
Co   -0.085254     1.032010     1.902570
Co    1.772450     1.619260    -0.190725
Co   -0.786580     0.561646     1.404800
Co    2.488380    -1.723460    -0.128193
Co   -0.082336    -0.653968     1.557460
Co   -2.149980     0.158214     0.456055
Co   -1.278550    -1.304010     1.877160
Co    2.016480    -0.986874    -1.821670
Co   -0.540206    -1.274680    -1.410440
Co   -1.680510     0.905907    -2.240140
Co   -0.042068     0.309917    -0.946068
Co    0.319589    -1.675410     0.020820
Co    0.931835    -1.805950    -2.075000
Co    1.061730     1.149810    -0.692847
Co   -0.328937     0.099308     2.138220
Co    0.164630     0.289499     1.311090
Co   -1.685200     2.013770    -0.013291
Co    1.071550    -0.618460     2.780700
Co   -1.656000     0.351379    -0.371109
Co    2.969980     0.114194    -0.591564
Co   -0.543444     1.499310     1.169380
Co    0.628019    -1.849150     1.696460
Co   -0.241024     2.516720    -0.781014
Co   -1.245620     2.135250     0.873733
Co   -0.722176     0.650690    -0.308554
Co    0.167345    -1.397630     0.963399
Co   -1.736780     1.920770     1.688820
Co   -1.903350    -0.292090    -1.071210
Co    0.657232     2.173760     0.851052
Co    0.373272     0.574256     2.656920
Co    1.551860     1.219660     2.317710
Co    0.662297     0.487542     0.487595
Co    1.913980     1.327900    -1.134480
Co   -2.590180     0.074057    -0.440112
Co   -1.482300    -1.574630    -1.481190
Co    0.069796    -2.598050     0.256912
Co   -0.972261    -0.293881    -0.070450
Co    0.208771     0.953533    -0.247402
Co   -1.033130    -0.374655     1.642510
Co   -0.499133     1.880200    -1.490340
Co   -2.215550     0.084696     2.154580
Co   -2.174550     1.807470     0.817064
Co    1.724510    -0.722414     1.014170
Co   -0.081151    -2.322710     1.191450
Co    0.908978     1.428080     0.251447
Co    0.073871    -2.020010    -1.629190
Co   -1.475340    -0.489052     0.757460
Co    2.280600    -0.354705    -1.106270
Co    2.039410    -1.274490    -0.874031
Co   -1.176360     2.202260    -0.839568
Co    1.176780    -1.475260    -0.425153
Co    0.452231     1.890130    -0.484139
Co   -2.422070     0.895614     1.057530
Co    1.149950     2.357120     0.016314
Co    0.202421     1.249580    -1.185250
Co   -1.661990     0.638404    -1.307990
Co   -1.228280    -0.940189    -0.772785
Co   -1.905180    -0.584821    -0.135247
Co   -0.476938     1.589290    -0.545674
Co    1.176280    -0.890654    -2.313230
Co    1.414740    -0.244189    -1.596850
Co   -0.785600    -2.204170    -1.176320
Co    0.558163     0.133900    -3.016480
Co    0.619655    -0.172088     2.048070
Co   -1.221680    -1.232100     0.165912
Co    0.690384     2.814350    -0.718077
Co    1.170380    -1.176800    -1.361370
Co    0.932497    -2.120240    -1.136410
Co   -1.248210    -0.340147    -2.642800
Co   -1.026020    -2.052300     1.280170
Co    0.932883    -2.405280    -0.190715
Co   -0.750544     1.232210    -2.189260
Co   -2.827320     0.809953     0.167775
Co   -2.153920    -1.514300     0.098705
Co   -1.474200     1.192210     1.106160
Co   -2.335700     1.001940    -0.672754
Co    2.381920     0.868258    -0.396054
Co   -0.288227     0.759054     0.577505
Co    0.377618    -1.107740     2.299240
Co   -0.731330     0.947057    -1.249530
Co   -2.167050    -1.226770    -0.843928
Co    0.131650    -0.345382     2.880830
Co    0.077596    -1.704340    -2.552500
Co    0.074193    -2.319870    -0.688116
Co   -3.073620    -0.110126     0.393943
Co    1.302700     2.078990    -0.927452
Co   -0.785215    -1.125020     1.053570
Co   -1.727960    -1.420210     0.994510
Co    0.317567    -1.383900    -0.918916
Co    0.559549    -0.144301    -2.087550
Co    1.790510    -2.192820    -0.638393
Co   -1.407580     1.285370    -0.606531
Co    1.492880    -1.663300     1.256070
Co   -1.717590     0.261054     1.341680
Co   -1.479330    -1.259230    -2.404930
Co   -1.909010     1.089430     0.221530
Co    0.413594    -0.458894     0.726000
Co   -1.977200    -0.670837     1.584510
Co   -0.332765     1.758910     2.495040
188

Co     2.123784    -0.286713     1.106560
Co     0.268668     0.874027    -0.316225
Co    -2.074949    -1.155747     1.972159
Co     0.854912     1.675440     1.127749
Co    -2.824331    -0.564387    -0.411290
Co    -0.238963    -1.625288     0.521184
Co     1.626524     0.180951     0.350838
Co     1.087537    -0.662639    -1.805170
Co    -0.180524     2.538482    -0.329074
Co    -2.408490    -0.963899     0.332987
Co    -1.432577     0.683340     2.630436
Co     1.620324    -1.779154     0.508628
Co     0.910928     1.973298    -1.461957
Co    -0.591836    -0.361922     1.565002
Co    -0.681872     2.205319     1.807933
Co     0.271274     2.055864     0.350725
Co     0.031336    -1.886152    -2.470177
Co     0.217673    -1.029854    -0.018572
Co     0.361424    -1.405361    -1.720151
Co     0.529599    -0.459184     0.711519
Co    -2.617891     0.373206    -0.078377
Co    -0.103828    -1.563121    -0.803831
Co    -1.254715     1.367030     0.381932
Co    -0.668246     0.705865     0.168888
Co    -1.525485    -2.337821    -0.379630
Co     0.498976     2.937639     0.115041
Co    -0.936520    -0.166936    -0.191599
Co     1.738298    -0.511093     1.904014
Co     0.103435    -0.402097    -1.696699
Co    -1.699834    -0.266953     2.359881
Co    -0.414729     0.792607     2.793396
Co    -1.141190     0.049143     0.806159
Co    -1.779660     0.813861     0.994174
Co     1.438497     0.889659     0.914242
Co     0.480742     0.987655     2.343630
Co    -0.711388    -2.268659     1.125173
Co     2.612415     1.518591     0.541945
Co     1.387442    -0.756575     0.612415
Co    -2.220892     0.166595     1.578908
Co     0.730750     0.456616     0.480263
Co     0.219837    -2.106984     1.313778
Co     0.725805     2.707445    -0.794970
Co     1.291531     0.433692    -2.583538
Co     1.727209    -2.105553    -1.077259
Co    -1.666043     1.584662    -1.278088
Co    -0.193332     1.726445     2.514248
Co     2.562463     0.456424    -1.372239
Co     1.212387    -1.851057     1.377391
Co    -0.294247     0.496284     1.871769
Co     0.372052    -2.004117    -0.112082
Co    -1.610416    -0.541777     1.383353
Co     0.930465     1.350629     0.175047
Co    -2.053979     0.996072    -0.657863
Co     0.520322    -0.232882    -2.577052
Co     1.367822     1.444931    -0.659391
Co     1.021002     2.509879     0.847521
Co     2.498340    -1.406642    -1.204540
Co     0.329775     0.687893    -2.475340
Co     1.971147    -1.032272    -1.962965
Co    -1.046025    -0.975300     2.197394
Co     1.321679    -0.160578    -0.989130
Co     0.031294    -1.091368     1.382724
Co     2.005218     0.882076    -2.106592
Co     1.579233     0.683559    -1.238887
Co    -0.425062    -1.674031     1.966866
Co    -1.140929     2.607034     1.039228
Co     0.618736     0.753816     1.418617
Co    -0.084451     1.408076     1.594118
Co    -1.423643    -0.801857     0.444564
Co    -1.987631    -1.893559    -1.038555
Co     2.144461     1.974754    -0.235688
Co     2.812304    -0.970023    -0.415614
Co     1.114519     0.249966     2.158986
Co     2.377984     0.620824     0.795430
Co    -1.244792     0.337346    -2.291855
Co    -0.763653    -0.076781     2.437690
Co     1.272953    -2.246943    -0.199761
Co     0.187651     1.505069    -1.889019
Co    -1.700566    -1.310545    -0.350182
Co    -0.857965    -2.623349    -0.938105
Co    -0.350043    -2.011702    -1.611677
Co    -0.277965     1.339161    -1.017178
Co    -1.006541     0.828736    -1.466365
Co    -1.950147    -0.400616    -0.266919
Co    -0.479499    -0.612944     0.572876
Co    -0.406497     0.006636    -2.385552
Co     1.139166     1.194287    -2.030070
Co    -1.611036    -1.254737    -1.668315
Co     0.080649     1.189874     0.641122
Co     0.883657    -0.606171     2.400268
Co     2.080512     0.289768    -0.556737
Co    -0.896028    -1.204171     1.192533
Co    -0.045314     2.189810    -1.338956
Co     0.640907    -0.832309    -0.925627
Co     0.898894     0.293640    -1.793987
Co    -0.096196     0.586421    -1.606417
Co    -1.770002    -0.276165    -1.695220
Co    -0.323684    -0.585640    -0.804435
Co    -0.513069     1.838266     0.864606
Co     0.078120    -2.527301    -0.850735
Co     2.327165     1.171363    -0.831434
Co     0.935904    -0.299994    -0.143996
Co     1.267108    -0.000619     1.245889
Co    -1.103548    -2.726255     0.343253
Co     0.690345     1.899894     2.028417
Co     2.391350    -1.110634     0.438268
Co    -0.164668    -0.836942     2.281543
Co     1.120441    -1.272193    -0.171843
Co     0.238889     0.117486     2.540237
Co    -1.068704    -0.626907    -2.358553
Co    -2.259781     1.254781     0.202322
Co    -1.269893    -1.712432     0.452615
Co     0.766532    -1.249257    -2.618395
Co    -1.150661     1.108894    -0.563848
Co    -1.753472    -2.344790     0.992004
Co    -0.580166     1.008294    -2.330659
Co    -0.760007     1.752204    -1.808959
Co    -0.747614     0.933611     1.059722
Co    -1.451709    -1.816184     1.769945
Co    -0.426426     1.585058    -0.061329
Co    -1.222125     0.320203     1.754412
Co    -0.168927     0.247795     0.905794
Co    -0.178594    -0.924991    -2.496434
Co     1.803889    -0.624866    -0.247843
Co    -1.412870     0.262818    -0.883205
Co    -0.921578     2.092016    -0.883411
Co    -0.468539     0.400700    -0.796340
Co    -2.232648    -0.869663    -1.008358
Co     1.834900    -0.067936    -1.839218
Co    -0.598977    -2.071329    -0.229907
Co    -1.944288    -1.407079     1.102095
Co    -0.023295     0.000207    -0.004326
Co    -2.366847     1.533730     1.224867
Co     2.044118    -1.644198    -0.279662
Co    -2.050408    -0.114628     0.645060
Co    -2.550286    -0.716709     1.323137
Co    -0.075396    -2.567755     0.537163
Co     0.495360    -2.374771    -1.696179
Co     1.512980    -1.338496     2.241223
Co     1.001052    -0.945915     1.510246
Co     2.556708    -0.125105     0.161920
Co    -0.584331    -1.111570    -1.581752
Co     2.129412     1.426923     1.411721
Co    -0.911174     1.301238     2.000622
Co    -0.323045     2.837567     0.587373
Co     0.333118    -0.228237     1.636218
Co     2.244292    -0.468645    -1.121902
Co    -1.884319     1.111521     1.935488
Co    -1.330871    -2.189919    -1.716841
Co    -0.743813    -1.166281    -0.157650
Co     0.865863    -1.838206    -0.960263
Co     1.844532     1.067118     0.039941
Co     0.384768     0.091459    -0.921904
Co    -1.558950     0.580499     0.034001
Co     1.212643    -1.646400    -1.840834
Co    -2.684028     0.647760     0.824325
Co     0.146469     2.390998     1.304357
Co     1.907433    -1.209568     1.323603
Co     1.500811    -1.185285    -1.038641
Co    -0.859539    -1.632138    -2.306940
Co    -2.634394    -1.508976    -0.447490
Co     1.845607     1.608732    -1.517766
Co     0.524120    -1.518360     2.042665
Co    -1.052179     2.326223     0.087488
Co    -1.278261    -0.673176    -0.960028
Co     1.499076    -0.599554    -2.669407
Co     1.921502     0.443008     1.661410
Co     1.117080     0.591728    -0.371557
Co    -0.821122    -0.064588    -1.577864
Co    -1.907973     2.134654     0.520213
Co     1.209885     2.267547    -0.072390
Co    -2.170649    -1.979078     0.272741
Co     1.282196     1.180514     1.831400
Co    -3.027046    -0.283729     0.540355
Co     0.673012    -1.482222     0.711271
Co    -1.734110     1.809570    -0.383739
Co    -1.941636     0.733480    -1.643190
Co    -1.387453     1.703253     1.259691
Co     3.037843    -0.021833    -0.688096
Co     1.539256     2.123680     1.592269
Co    -1.070447    -1.663457    -0.920202
Co     0.632332     0.999254    -1.213153
Co     1.686761     1.869374     0.674039
Co     0.843590    -2.425961     0.650520
Co     0.460207     1.816495    -0.570962
Co    -2.451012     0.099263    -0.957424
Co     2.846034     0.746700    -0.127876
Co     1.633868     2.399147    -0.903864
