11

Zn    0.249652    -0.269726    -2.666926
Zn   -2.174819     0.821286    -1.288494
Zn    0.603640     1.287164    -0.481778
Zn    2.622752     1.576378    -2.260416
Zn   -0.147454     2.768518    -2.825034
Zn    1.359606     2.316697     1.986025
Zn   -1.062380     0.432581     1.571411
Zn   -0.479536     2.599028    -0.115945
Zn   -1.844603     4.255625     0.330076
Zn    1.837330     3.942709    -0.601515
Zn    2.013720    -0.561333    -0.318992
11

Zn     0.331559    -2.654302     0.037888
Zn     1.251707    -3.376611     2.480963
Zn    -1.876000    -1.507908    -1.144725
Zn    -1.857497    -3.112941     1.631495
Zn     2.846571    -1.624721     0.595700
Zn     0.183635    -1.206238     0.929308
Zn     0.959385    -0.415595    -1.566559
Zn     0.440870     1.022963     1.776065
Zn     0.481035    -4.485691    -1.138906
Zn    -2.220761    -0.117367     1.489491
Zn    -0.441784    -1.183497     3.562795
