98

Pb   -0.523343    -0.977033    -0.589670
Pb   -1.071356     2.697034    -0.721182
Pb    1.263547     1.816112    -1.180049
Pb   -0.824768     1.093613     1.821381
Pb   -0.115382    -0.051946     1.768072
Pb   -0.605943     1.357009     0.545512
Pb    0.192445    -0.513322    -1.106934
Pb    1.441101     1.788090     0.957848
Pb    1.104137    -0.059694     0.598202
Pb   -1.225218    -0.736841     1.415501
Pb    1.352246     0.185780    -0.766526
Pb   -1.255914     0.181834    -0.514406
Pb    0.410968     0.422216    -0.889864
Pb    0.164654     0.178518     0.464993
Pb   -0.040771    -1.447845    -1.316170
Pb   -0.709485    -1.866826    -0.783558
Pb    1.915684     1.338184     0.270185
Pb   -1.069729     1.117702    -0.312223
Pb   -0.349007     0.646832     1.153714
Pb   -1.007859    -0.518993     0.117430
Pb    0.399307    -0.257743    -2.381644
Pb   -0.764596    -0.278313    -1.220649
Pb   -0.554229    -0.285439     0.945169
Pb    0.401323    -0.525012     1.103699
Pb    0.656766    -0.958621    -1.787723
Pb    0.344603     2.082847    -1.326139
Pb    1.096784     0.890719    -1.403866
Pb   -0.110332     1.800463    -2.108400
Pb    0.410658    -1.192426    -0.458611
Pb   -0.393258     2.293193     0.754593
Pb    1.141591    -0.734263    -0.976727
Pb    0.135475     1.126169    -1.511198
Pb   -0.103314     0.895234    -0.176544
Pb    0.538953     2.063442     0.882866
Pb    0.098316     1.838596     0.029795
Pb    0.803007     1.576403    -1.983604
Pb   -1.307773     2.463127     0.579239
Pb   -0.836798     2.030335    -0.105721
Pb   -0.820011     1.361548    -1.664288
Pb   -0.818513     0.423829     0.327138
Pb   -1.209126    -1.429571    -0.093811
Pb   -0.512090    -0.031286    -2.507081
Pb   -0.279636    -0.756573    -1.940031
Pb   -0.143305     2.540491    -0.620280
Pb   -0.313657    -0.963136     1.540041
Pb   -0.056963    -0.760082     0.264944
Pb   -1.687404    -0.048753    -1.337646
Pb    0.173545    -1.436711     0.870252
Pb    1.291684     0.865876     0.804620
Pb   -1.186964    -0.489157    -2.023867
Pb   -1.927433    -0.286232    -0.017361
Pb   -1.767030     0.641055     0.199629
Pb    0.779735     1.337438     1.481173
Pb   -1.560378     1.565841     0.410673
Pb   -1.030375     0.173913     1.640041
Pb    1.017291     1.574815     0.149419
Pb    0.891293    -0.981904     0.400046
Pb   -1.519822     0.885638    -1.160149
Pb   -1.311906     0.874877     1.041396
Pb    0.607169     0.662932    -2.206340
Pb   -1.470335    -0.752787    -0.721498
Pb   -0.969570    -1.192560    -1.411494
Pb    0.203296    -2.085350    -0.656920
Pb    0.656908    -0.282598    -0.250192
Pb    0.894117    -0.037451    -1.606931
Pb   -0.294847    -0.040008    -0.379587
Pb   -0.769141    -1.240880     0.752506
Pb    0.788947     2.310782    -0.492235
Pb   -0.573304     0.666433    -1.021639
Pb    1.755343     0.417923     0.075507
Pb    1.202233     2.472144     0.344444
Pb   -1.665201    -0.962316     0.606691
Pb   -0.356681     1.603625    -0.825563
Pb    0.088247     0.869233     1.947957
Pb    0.348566     1.121055     0.677442
Pb   -0.308613     0.888010    -2.330035
Pb   -1.974693     1.333821    -0.437873
Pb    1.677615     2.022091    -0.343101
Pb    0.598115     1.367954    -0.695211
Pb    0.875751    -1.627918    -1.144908
Pb    1.557432    -0.505782    -0.126620
Pb    0.290828     2.733384     0.225739
Pb   -0.289751    -1.694181     0.053351
Pb   -0.598351     2.273602    -1.435304
Pb    0.853791     0.645907    -0.047388
Pb    1.541785     1.113321    -0.571069
Pb   -1.310736     1.812833    -0.962495
Pb   -0.148425     1.595055     1.385775
Pb   -0.070958     0.192701    -1.713083
Pb   -1.081839     1.795249     1.224135
Pb   -1.742088     2.236734    -0.233178
Pb    0.603741     0.402912     1.308134
Pb   -1.515200    -0.052074     0.829416
Pb   -1.026135     0.431798    -1.860705
Pb   -0.636120     2.923902     0.091488
Pb   -2.149245     0.413223    -0.635194
Pb    1.314426    -1.406039    -0.332728
Pb    0.639408    -1.861751     0.155104
98

Pb    -0.009507    -1.217715    -1.457652
Pb    -0.648152    -0.603703    -1.488914
Pb    -0.877062    -1.229801     2.005585
Pb     1.025911     0.739816    -0.027500
Pb     0.249254    -0.844815     0.202174
Pb     0.876975    -0.085914     0.535501
Pb     1.873750    -1.376849    -0.229058
Pb     0.025660     1.831053     0.763727
Pb     1.282809     0.196024    -0.790187
Pb    -1.682792     0.570511    -0.700822
Pb     0.391431    -1.178371     2.299660
Pb     1.275077    -1.993608    -0.549674
Pb     0.076712    -2.409774     1.281157
Pb    -0.878493     0.926362     1.702150
Pb    -1.256340    -0.376608     0.632294
Pb    -0.437701    -0.167937     0.148415
Pb     1.414085    -0.226815     1.441698
Pb     0.369936     1.339484    -0.012100
Pb    -0.150767     1.393507    -0.860488
Pb     0.187930     0.579924     0.521158
Pb     1.471556    -1.633452     1.108321
Pb    -0.068862    -2.031755    -0.843304
Pb     1.516063     0.533373     0.851414
Pb     0.714846     0.227773    -1.616507
Pb    -0.687332     0.355067     0.949534
Pb     1.070971    -1.531421     0.337458
Pb     1.224127    -1.079156     1.903459
Pb     2.098959    -0.864903     1.427593
Pb    -0.926152    -0.097018    -0.631174
Pb     0.810060    -1.116469    -1.765839
Pb     2.125930    -0.096484     0.886780
Pb    -0.719076    -1.824989     1.187730
Pb    -0.267750    -0.595781     2.243369
Pb    -1.163578     0.451717     0.130927
Pb    -1.761329    -0.206283    -0.184273
Pb    -1.482064     0.226439     1.453785
Pb    -1.459584    -1.128572     1.195183
Pb     2.396208    -0.597666     0.116537
Pb    -0.780285     1.690374     1.199807
Pb     0.831127     1.245672     0.830809
Pb    -0.567848     0.220535    -1.955284
Pb    -1.944588     0.350077     0.546775
Pb    -0.772511    -0.420186     1.508494
Pb    -0.032726    -1.065411     1.556126
Pb    -0.169555    -1.842963     1.984845
Pb    -1.909699    -0.987789     0.290166
Pb     0.476283    -0.038477    -0.264031
Pb     1.911538    -0.474374    -0.672416
Pb     0.626071    -2.651432    -0.746372
Pb    -0.966983    -2.210269    -0.409688
Pb     1.463204    -0.382233    -1.498530
Pb     0.123129    -0.454078    -1.854062
Pb    -0.996339     0.116387     2.166694
Pb    -0.835840    -1.368429    -0.955312
Pb    -1.587787    -0.624402     1.904932
Pb     1.577942    -0.776568     0.569939
Pb    -0.458865     1.960693    -0.055366
Pb    -0.500342    -2.357911     0.408933
Pb     1.731855     0.063708     0.098848
Pb     1.406145    -1.260381    -1.031776
Pb    -1.597512    -1.534200    -0.461194
Pb    -0.537545     1.132355     0.405958
Pb     0.585517     0.795936    -0.870291
Pb     1.673725    -2.180976     0.348605
Pb    -0.251383     0.666738    -0.340799
Pb    -0.043132     0.130580    -1.124787
Pb     0.602841    -0.594066    -1.098543
Pb     0.683405    -1.812168     1.625885
Pb    -0.360245    -1.495363    -0.091180
Pb    -0.804198     0.734892    -1.214148
Pb    -0.154005     0.294453     1.861791
Pb     0.117152    -0.273009     1.065029
Pb     0.538383    -1.428057    -0.577932
Pb    -1.030006    -0.898298    -0.105696
Pb    -0.251137    -2.772085    -0.345194
Pb    -1.516819    -0.741813    -0.919885
Pb     0.759502    -0.909385     1.069730
Pb    -1.243966     1.811800     0.407280
Pb     1.180745    -0.687621    -0.257744
Pb     0.050864     0.929047    -1.665811
Pb     0.401804    -2.194993    -0.000420
Pb     0.185451    -1.694142     0.740573
Pb    -1.825783     1.101086     0.086819
Pb     0.588806    -0.398954     1.889535
Pb    -1.401535     0.982366     0.907367
Pb     2.310864    -1.434674     0.662002
Pb    -1.196229    -1.651921     0.409437
Pb    -1.076252     1.344097    -0.478112
Pb     0.648900     0.441028     1.297911
Pb    -0.587164    -0.973082     0.738471
Pb    -1.345823     0.096752    -1.476554
Pb     1.081095    -2.745925     0.057516
Pb     0.857065    -2.318405     0.828471
Pb     0.760573    -1.873626    -1.331701
Pb    -0.190635    -0.759256    -0.640619
Pb     0.229607    -2.919325     0.523830
Pb    -2.083245    -0.456480     1.142488
Pb    -0.077011     1.069564     1.298526
