100

Co    0.794049    -1.274610    -1.878660
Co   -0.416039     0.265292    -0.339140
Co   -1.177820    -0.806021     0.605540
Co    1.618910     0.491588     1.675460
Co   -0.844538     0.467296    -1.892720
Co    0.934069     0.413143     0.997902
Co   -0.631156    -0.026457     0.524121
Co   -1.535050     0.115820     0.838469
Co   -0.558317    -1.313170     0.035342
Co   -1.659460    -0.601563    -0.951603
Co    0.918668    -0.311525    -2.125470
Co   -0.177622     0.550045    -1.202240
Co    1.869830     0.250526     0.754424
Co   -1.496800     0.991243    -1.309390
Co    1.788140     0.936687     0.032078
Co   -0.959693     0.332412     2.109710
Co    2.292780    -0.225456    -1.125210
Co    0.419869     1.329250    -1.281230
Co    0.837567     1.095540     0.281281
Co   -1.396340    -1.118200     1.510650
Co   -0.842127    -1.220140    -0.936934
Co   -0.057540     0.712800     1.921990
Co    0.083658     0.832850    -2.077260
Co    0.684557    -0.473798     0.648250
Co   -1.887360    -0.371996     0.018728
Co   -0.768414    -1.648840     0.946722
Co   -0.429978    -1.154790     1.751810
Co   -0.743203     0.637896     1.201850
Co   -0.573134     1.369100    -1.520270
Co   -0.853994     1.294180     1.885200
Co    1.658660     1.598080    -0.692359
Co   -0.136578    -1.105290    -1.639900
Co    1.006770     0.655798    -2.321900
Co    0.053219     0.036938     1.223460
Co   -0.946451     1.767720     0.026887
Co   -0.839526    -0.328418     1.407270
Co    0.138816    -1.225860    -0.677416
Co    0.739774     0.113067     1.909160
Co   -0.398976    -2.034740    -0.598717
Co    1.378500    -0.061939    -0.854694
Co    0.628683    -0.586699    -1.240850
Co    1.828450    -0.882312    -0.557120
Co    0.821283    -2.158150     0.581149
Co    0.203144    -1.669710     1.172890
Co    0.564618    -2.053620    -0.365872
Co   -1.213050     1.865050    -0.928709
Co   -2.187300     0.554606     0.250981
Co   -1.532430    -1.279400    -0.211328
Co   -1.733810    -0.194961     1.736090
Co    0.747700     1.774580     0.974413
Co   -0.162269    -0.265438     2.119100
Co    0.250673     0.339843     0.324410
Co   -1.297930     0.412375    -0.052672
Co   -1.745830     0.094541    -1.659930
Co    0.733896     1.786800    -0.445377
Co   -0.973170    -0.497502    -0.287888
Co   -0.659986     1.619410     0.985826
Co    0.910229    -0.714137    -0.289700
Co   -1.720680    -1.585100     0.696116
Co    1.372940    -0.399424     1.329270
Co    0.732393     0.382649    -1.460350
Co    0.469617     0.102432    -0.590278
Co    0.834887     1.088760     1.686520
Co    1.535910     1.173090     0.966699
Co    0.298813    -1.915750    -1.311200
Co    0.405890    -1.341520     0.273246
Co    1.077740    -1.423390    -0.942540
Co    2.096760     0.008968    -0.189054
Co   -1.098510    -2.090580     0.119491
Co   -0.539167     0.944526     0.307641
Co    1.332810    -1.533470     0.017668
Co   -1.631330     0.776617     1.543090
Co    0.144986     1.025580    -0.394729
Co    0.033737     1.670900     1.672800
Co    0.141760     1.012680     0.995826
Co    1.623010    -0.651159     0.393746
Co    0.045896     1.730450     0.281670
Co   -0.022360    -0.139873    -1.888030
Co   -1.442390     1.106520     0.629258
Co    1.555710    -0.757221    -1.510660
Co    1.063000     0.856307    -0.644937
Co   -1.077880     0.179433    -0.996473
Co    0.481040    -0.789593     1.561340
Co   -0.287520    -0.411476    -0.988250
Co   -0.011527    -0.531237    -0.035333
Co   -1.992990     0.326735    -0.715584
Co   -0.812290     1.061990    -0.631976
Co   -0.137310    -2.140980     0.352748
Co   -0.954479    -0.513226    -1.671330
Co   -2.071800    -0.686769     0.938814
Co    1.663040     0.216816    -1.737170
Co   -1.721670     1.228400    -0.343240
Co    1.177450     0.173590     0.076912
Co    1.104270    -1.291990     0.960627
Co   -0.213242    -0.848291     0.857866
Co    1.428950     1.838370     0.239216
Co    1.354360     1.135980    -1.527710
Co   -0.242988     1.850910    -0.694888
Co    1.991470     0.690386    -0.912866
Co   -1.058960    -0.630769     2.299460
100

Co    -1.880311     0.423651    -1.505104
Co     0.928028     0.576114     0.368759
Co     0.929938     1.434165     0.086866
Co    -1.132813     0.796394    -0.454241
Co     0.311074    -0.161259     2.682072
Co    -0.240643     0.378236    -0.105949
Co     0.485607     0.151780    -1.107911
Co    -0.257619     0.657579    -0.942830
Co     0.353667     1.698180    -0.643448
Co    -0.361244     0.766421     1.243162
Co    -0.402203    -0.110173    -1.626594
Co     0.833022    -1.331397    -1.893673
Co    -0.849826     0.069832     0.848028
Co    -1.564108    -0.831000    -0.795926
Co     0.957027    -0.472756    -1.707468
Co    -0.422418     1.328284    -0.275724
Co    -1.465819    -1.470577    -0.069619
Co     0.791392    -1.501916    -0.978908
Co    -1.876421     0.196595    -0.490540
Co     2.052382     0.161018    -0.180034
Co     1.559860     1.195034     0.889789
Co    -1.702542    -1.275103     0.901365
Co     0.214725    -1.026097    -0.332403
Co    -0.939571    -1.014994     1.484425
Co    -0.248094    -0.196569    -0.708641
Co     0.367012    -1.914524    -0.115226
Co    -1.151403     0.080877    -1.093036
Co    -0.231778    -1.454610    -1.943830
Co     0.239708     1.250078     1.835883
Co    -1.243142     0.188993    -1.920468
Co     1.992578     0.668803    -1.016135
Co     1.098144     1.421207     1.714363
Co    -1.622115     1.352724     0.193180
Co     1.147958     1.321667    -0.868733
Co    -0.869553     1.204639     1.896078
Co     0.228397    -0.148168     1.612350
Co     0.208230    -0.539678    -2.202263
Co     0.153023     0.082509     0.697004
Co    -1.084657    -0.943261     0.604354
Co     0.410590     1.087507    -1.285511
Co    -1.923633    -0.608032     0.251943
Co     2.261867    -0.672071     0.432555
Co     0.678080     0.679156     2.278122
Co    -1.252658     0.630608     1.308445
Co     0.330208    -0.872823    -1.326008
Co    -1.290201    -1.725447    -0.876583
Co    -1.017834    -1.733072     0.746126
Co     1.349741    -1.039673     0.908085
Co    -0.848700     1.068677     0.482222
Co    -1.025233    -0.209718    -0.166530
Co     0.617731    -1.638745     0.788011
Co    -1.276478     1.507758     1.179647
Co    -1.592143     0.457600     0.473671
Co    -0.161623    -1.565406    -0.914246
Co     0.719049     1.632137     1.012236
Co     0.119262     1.157710     0.587750
Co    -0.282930     0.224464    -2.650913
Co    -1.518993    -0.318534     1.169810
Co     0.497464     0.443566    -2.028946
Co    -1.660243    -0.573311    -1.663438
Co     0.024453     2.079418     0.199618
Co    -0.207690    -1.531401     1.390999
Co     0.381332     0.832678    -0.460633
Co    -1.295856     1.658902    -0.664778
Co     1.756909    -0.250145    -1.240327
Co    -0.133892    -0.943558     2.005895
Co     1.343546    -0.284701     0.234185
Co    -0.287444    -0.464174     0.201719
Co    -1.173867     0.891341    -1.280529
Co     1.240951     0.383061    -0.527735
Co    -0.250588    -0.696356     1.068674
Co    -0.508005     2.287037    -0.572676
Co    -0.716253    -1.965006    -0.231456
Co     1.047050    -0.655872    -0.780349
Co    -0.737487    -0.947350    -1.251686
Co     0.696963    -0.911004     1.551980
Co     1.082115    -1.370766    -0.132544
Co     0.768114     0.673272     1.173811
Co    -0.656340    -1.087443    -0.348893
Co     1.306498     0.583505    -1.457829
Co    -0.721858    -0.615306    -2.198972
Co     1.092681    -0.153847     1.089054
Co     1.899982     0.206275     0.710307
Co     1.731603     0.950928     0.000833
Co    -2.040066     1.111600    -0.689911
Co     0.602414    -0.841235     0.469661
Co     0.535975    -0.144466    -0.222646
Co    -0.678322    -0.149924     1.826685
Co    -0.392838     1.681702     1.120880
Co     1.493184    -1.226155    -1.329113
Co    -0.467417     0.854133    -1.974541
Co    -0.842877     1.845804     0.365956
Co    -0.463083     1.638944    -1.167559
Co    -0.246819     0.472339     2.354906
Co    -0.218895    -1.410593     0.441711
Co     1.828789    -0.424167     1.318572
Co    -0.219306    -2.302095     0.647030
Co     1.848175    -0.862664    -0.479370
Co     1.565594     0.558627     1.521373
Co     1.126254    -0.309755     2.031146
