188

Co    2.348610    -1.449680     0.806481
Co   -0.044361     1.699620     0.341300
Co    1.521450     0.685522     0.043848
Co   -0.063187     0.869541    -2.813160
Co    0.863624     0.760682     1.812830
Co   -0.291302    -0.635829    -0.707356
Co    0.872006    -0.919258     1.461610
Co    2.515230     0.568484    -1.335960
Co   -0.302685    -0.053050    -2.588640
Co    0.565712    -0.736418    -0.215644
Co    1.645300    -1.941250     0.312793
Co    0.194881     2.627130     0.105383
Co   -1.284510     0.380850     2.235620
Co   -1.924960    -0.011966    -2.020350
Co   -0.039288     0.010288    -0.009432
Co    1.821800     0.481668     1.731890
Co    1.668800     0.688866    -1.846140
Co    1.968770     0.210427     0.778973
Co   -2.576840     0.352422    -1.383410
Co    2.668320     0.664001     1.273730
Co   -0.293844    -0.337569    -1.645450
Co    1.608000     1.885240     0.756767
Co    0.441472     2.177710    -1.419070
Co    1.775460    -1.902660    -1.578010
Co    0.611042     1.490890     2.417410
Co   -0.049982     0.599162    -1.883880
Co   -0.538927    -1.574650    -0.471689
Co    1.668550     0.399007    -0.898458
Co   -0.973550     0.004847    -1.005250
Co    1.113020     1.701910     1.591160
Co    1.421530    -0.537758    -0.661130
Co    1.333630    -1.359580     2.189650
Co    0.562324    -0.436061    -1.150480
Co    0.159195     1.974430     1.680650
Co    0.315482    -1.077010    -1.852160
Co   -2.830100    -0.850140    -0.206225
Co   -0.812293    -0.079292     2.959690
Co    2.229290     1.146450     0.547736
Co    1.412240     0.030036    -2.538590
Co   -1.522810    -0.542506     2.460660
Co   -0.782055    -2.497770    -0.230916
Co    2.057520     1.402640     1.494290
Co    2.738610    -0.805111    -0.352209
Co    0.785877    -2.141460     0.757943
Co   -2.162140    -0.923603    -1.781040
Co    1.308410     0.304234     2.560110
Co    2.596720    -0.533273     0.576706
Co    1.580940    -0.438355     1.963570
Co    0.813457     0.507013    -1.396460
Co   -2.415310    -0.773297     0.693759
Co    1.265630    -0.258942     0.280748
Co    2.120640    -0.066455    -0.160525
Co    1.116830     0.017883     1.224440
Co   -0.288302    -0.932386     0.228219
Co   -1.225430    -0.637381    -1.706070
Co   -0.564579     0.840393     2.737640
Co   -1.437560     1.561900    -1.545870
Co    1.059880     1.439860    -1.638700
Co    0.328458    -0.789513    -2.790660
Co   -0.747602     2.333360     0.046453
Co   -0.535103    -1.867810     0.464123
Co   -1.479940    -1.873060    -0.541628
Co   -0.978737     1.398450     0.281583
Co   -0.537287    -0.186764     0.815891
Co   -2.824760    -0.564733    -1.147280
Co   -0.784047    -1.891570    -2.115600
Co    0.413038     1.237170     1.080570
Co    1.876300    -0.999266     0.074740
Co    2.186930    -1.173820     1.737000
Co   -1.459880    -2.157890     0.400401
Co    2.256800    -0.065186    -2.042290
Co    0.189742     1.528140    -2.120930
Co   -1.044670     1.300610     2.003130
Co   -0.575021    -0.835217     2.389850
Co    2.829580     0.386212     0.343621
Co   -0.802851     2.218670     1.762800
Co   -0.327364    -1.586860     1.798630
Co    1.363350     0.955306     0.989343
Co    1.025650    -1.206080     0.521009
Co    2.438900    -0.258584     1.502220
Co   -0.981808     0.293798    -1.941190
Co   -0.542953    -0.972799    -2.356250
Co    0.814593     0.209889    -0.454562
Co    0.808936     0.789449    -2.338820
Co   -1.986000     1.006000     1.923970
Co   -0.304413     2.429250     0.935714
Co   -1.000410     0.577496    -2.867800
Co   -2.656610    -0.020643     1.281400
Co   -1.219230     0.453292     0.515927
Co   -0.085254     1.032010     1.902570
Co    1.772450     1.619260    -0.190725
Co   -0.786580     0.561646     1.404800
Co    2.488380    -1.723460    -0.128193
Co   -0.082336    -0.653968     1.557460
Co   -2.149980     0.158214     0.456055
Co   -1.278550    -1.304010     1.877160
Co    2.016480    -0.986874    -1.821670
Co   -0.540206    -1.274680    -1.410440
Co   -1.680510     0.905907    -2.240140
Co   -0.042068     0.309917    -0.946068
Co    0.319589    -1.675410     0.020820
Co    0.931835    -1.805950    -2.075000
Co    1.061730     1.149810    -0.692847
Co   -0.328937     0.099308     2.138220
Co    0.164630     0.289499     1.311090
Co   -1.685200     2.013770    -0.013291
Co    1.071550    -0.618460     2.780700
Co   -1.656000     0.351379    -0.371109
Co    2.969980     0.114194    -0.591564
Co   -0.543444     1.499310     1.169380
Co    0.628019    -1.849150     1.696460
Co   -0.241024     2.516720    -0.781014
Co   -1.245620     2.135250     0.873733
Co   -0.722176     0.650690    -0.308554
Co    0.167345    -1.397630     0.963399
Co   -1.736780     1.920770     1.688820
Co   -1.903350    -0.292090    -1.071210
Co    0.657232     2.173760     0.851052
Co    0.373272     0.574256     2.656920
Co    1.551860     1.219660     2.317710
Co    0.662297     0.487542     0.487595
Co    1.913980     1.327900    -1.134480
Co   -2.590180     0.074057    -0.440112
Co   -1.482300    -1.574630    -1.481190
Co    0.069796    -2.598050     0.256912
Co   -0.972261    -0.293881    -0.070450
Co    0.208771     0.953533    -0.247402
Co   -1.033130    -0.374655     1.642510
Co   -0.499133     1.880200    -1.490340
Co   -2.215550     0.084696     2.154580
Co   -2.174550     1.807470     0.817064
Co    1.724510    -0.722414     1.014170
Co   -0.081151    -2.322710     1.191450
Co    0.908978     1.428080     0.251447
Co    0.073871    -2.020010    -1.629190
Co   -1.475340    -0.489052     0.757460
Co    2.280600    -0.354705    -1.106270
Co    2.039410    -1.274490    -0.874031
Co   -1.176360     2.202260    -0.839568
Co    1.176780    -1.475260    -0.425153
Co    0.452231     1.890130    -0.484139
Co   -2.422070     0.895614     1.057530
Co    1.149950     2.357120     0.016314
Co    0.202421     1.249580    -1.185250
Co   -1.661990     0.638404    -1.307990
Co   -1.228280    -0.940189    -0.772785
Co   -1.905180    -0.584821    -0.135247
Co   -0.476938     1.589290    -0.545674
Co    1.176280    -0.890654    -2.313230
Co    1.414740    -0.244189    -1.596850
Co   -0.785600    -2.204170    -1.176320
Co    0.558163     0.133900    -3.016480
Co    0.619655    -0.172088     2.048070
Co   -1.221680    -1.232100     0.165912
Co    0.690384     2.814350    -0.718077
Co    1.170380    -1.176800    -1.361370
Co    0.932497    -2.120240    -1.136410
Co   -1.248210    -0.340147    -2.642800
Co   -1.026020    -2.052300     1.280170
Co    0.932883    -2.405280    -0.190715
Co   -0.750544     1.232210    -2.189260
Co   -2.827320     0.809953     0.167775
Co   -2.153920    -1.514300     0.098705
Co   -1.474200     1.192210     1.106160
Co   -2.335700     1.001940    -0.672754
Co    2.381920     0.868258    -0.396054
Co   -0.288227     0.759054     0.577505
Co    0.377618    -1.107740     2.299240
Co   -0.731330     0.947057    -1.249530
Co   -2.167050    -1.226770    -0.843928
Co    0.131650    -0.345382     2.880830
Co    0.077596    -1.704340    -2.552500
Co    0.074193    -2.319870    -0.688116
Co   -3.073620    -0.110126     0.393943
Co    1.302700     2.078990    -0.927452
Co   -0.785215    -1.125020     1.053570
Co   -1.727960    -1.420210     0.994510
Co    0.317567    -1.383900    -0.918916
Co    0.559549    -0.144301    -2.087550
Co    1.790510    -2.192820    -0.638393
Co   -1.407580     1.285370    -0.606531
Co    1.492880    -1.663300     1.256070
Co   -1.717590     0.261054     1.341680
Co   -1.479330    -1.259230    -2.404930
Co   -1.909010     1.089430     0.221530
Co    0.413594    -0.458894     0.726000
Co   -1.977200    -0.670837     1.584510
Co   -0.332765     1.758910     2.495040
188

Co     0.938271    -2.136970    -0.855484
Co     0.549198     0.568978    -0.642456
Co     0.243751    -0.024485     3.015718
Co     1.957203    -0.120858    -0.527201
Co    -1.226834     1.860143     1.937803
Co    -0.814178    -1.062230     1.127208
Co     0.616316    -1.289122    -0.948600
Co    -1.487008    -0.305940    -1.442832
Co     1.586985     1.792538    -1.111592
Co    -0.781814     1.000491     2.202143
Co     1.932624     0.248228     2.263685
Co    -0.625883    -2.428936    -0.049336
Co     0.517338     1.096406    -2.248447
Co     0.604292    -0.459997     1.473407
Co     2.668363     1.047033     0.657638
Co     1.736256     0.905089    -0.746865
Co    -2.983896    -0.184411    -0.684102
Co    -0.679723    -0.677806     0.228834
Co    -1.985566    -0.245124    -0.694307
Co     0.220395    -0.939041     0.279650
Co    -0.327890     2.011043     1.621476
Co    -1.624680    -0.567659     0.146701
Co     1.067184     1.626621     0.476282
Co     0.493529     0.847979     0.321773
Co    -2.167728    -0.235198     1.839573
Co     2.358568     1.443434    -1.400956
Co    -0.410570     0.648925     0.706536
Co     1.333126    -2.229942     0.158360
Co    -1.452401     0.348992    -0.850231
Co     1.130362     0.063263     2.736717
Co     2.423887    -0.285544     1.547099
Co     0.305264     0.408300     1.197901
Co     0.935518     1.189112     1.469971
Co     1.464225    -0.921443    -0.872536
Co     2.386417    -0.628647     0.624682
Co    -0.879194    -1.276618     2.056895
Co     1.926711    -0.994296    -2.053013
Co     0.035755    -1.641639    -0.368080
Co     0.824107     0.953373     2.477272
Co     0.685153    -0.347125    -0.408104
Co    -0.581799    -1.960982     1.372865
Co     1.532061     1.521224    -2.055771
Co    -1.276429     0.356491    -2.641696
Co    -1.934585    -1.898789    -0.965966
Co    -0.141860     2.643782    -0.275859
Co     2.812856     0.084369     0.871463
Co    -0.156337    -0.812052    -2.722578
Co    -0.192000    -2.458513     0.711224
Co     1.593516    -0.191363     1.184200
Co    -1.433667    -1.479392     0.453714
Co     0.301825     0.147942     2.067741
Co     1.223389     0.108597    -1.059040
Co    -0.237288     2.397311     0.658488
Co    -1.845567     0.452193    -1.825937
Co     0.749387     0.314148    -1.944693
Co     2.660463     0.377360    -1.193643
Co    -1.336400    -2.009676    -1.817203
Co    -1.064155     1.251782    -1.933925
Co    -1.680882    -1.175240    -2.114071
Co     0.494807    -0.637375     2.333106
Co    -0.663730    -0.686603    -1.465649
Co     0.169825    -1.204677     1.288921
Co    -0.559844     0.122648    -2.948772
Co    -0.113691    -0.132807    -2.259509
Co     0.085249    -1.610449     2.226462
Co     2.232171     1.852358     0.439039
Co     1.570428    -0.614060     0.146595
Co     2.144833     0.298248     0.431293
Co    -0.430075     0.382341     1.636066
Co    -2.378926     0.845792     1.589289
Co     1.531230    -0.119032    -2.317695
Co    -0.334873    -2.337381    -1.753708
Co     1.777468    -1.579327     0.366691
Co     1.479429    -1.642601    -1.475402
Co    -1.467098     2.045122    -0.654250
Co     1.423369    -0.599398     2.011671
Co    -1.448720    -2.164135    -0.115938
Co    -0.232996     1.503107    -1.925134
Co    -1.398801     0.442718     1.588652
Co    -2.651028    -0.508164     0.984963
Co    -2.699834    -0.357839     0.096828
Co     0.181159     1.348693    -0.971423
Co    -0.560229     1.813940    -0.459603
Co    -0.824703     1.157665     1.264089
Co    -0.108616    -0.346263     0.984940
Co    -1.630318     1.196618    -1.115808
Co    -0.414492     0.701034    -2.408471
Co    -2.383867     1.105368     0.519391
Co     1.285512     0.405155    -0.196556
Co     1.278486    -2.070348     1.002902
Co     0.162827    -1.059809    -1.844407
Co    -0.280006    -0.692251     1.770627
Co     0.677578     1.829979    -1.552440
Co    -1.193843    -0.522443    -0.714746
Co    -0.854886     0.245796    -1.664720
Co    -0.734482     0.972238    -1.070922
Co    -1.602852     1.728543     0.375633
Co    -0.983918     0.129885     0.037881
Co     1.733257     1.154655     0.075626
Co    -2.368709    -1.160187     0.334937
Co     0.751802    -0.615204    -2.569450
Co    -0.248555    -0.849778    -0.514105
Co     1.016364    -1.446667    -0.109474
Co    -1.914555    -0.988882     2.043767
Co     2.931452    -0.080924     0.024533
Co    -0.006076    -2.376248    -1.051754
Co     0.928132    -1.354855     1.687692
Co    -0.828601    -1.424143    -0.319924
Co     1.923355    -1.110301     1.451935
Co    -2.206771     1.441747    -0.434641
Co     0.728278     2.144124     1.178022
Co    -1.099425    -0.278784     1.861786
Co    -2.466340    -0.182433    -1.491973
Co     0.181902     1.717351    -0.010099
Co    -1.221697    -0.714256     2.651605
Co    -0.964479     1.988888    -1.478358
Co    -0.088360     2.255227    -1.190368
Co     1.285135     0.699572     0.876994
Co    -0.299495    -0.897465     2.765167
Co     0.993947     1.305578    -0.374017
Co     1.236630     0.344809     1.832294
Co     0.737528    -0.194823     0.556484
Co    -2.469987     0.506821    -0.988727
Co    -0.323740    -1.525659    -1.178607
Co    -0.739002     1.540250     0.435582
Co     0.740156     2.115257    -0.696523
Co    -0.380461     0.870934    -0.239297
Co    -1.680150     1.475821     1.208144
Co    -1.064145    -0.522607    -2.285328
Co    -1.690077    -0.732252     1.055673
Co    -0.681337    -0.078141     2.541988
Co     0.011305     0.010400    -0.078579
Co     1.387569     1.926343     1.749187
Co    -1.055543    -2.255008    -1.047808
Co    -0.009765     1.117036     1.923707
Co    -0.135973     0.734068     2.892764
Co    -1.456959    -1.766111     1.408844
Co    -2.706160    -1.002709    -0.482082
Co     0.830965    -2.738700     0.809603
Co     0.508239    -1.882718     0.636657
Co     0.496984    -1.963492    -1.657647
Co    -2.016368     0.517498    -0.095240
Co     2.333342    -1.149662    -1.255306
Co     2.071393     0.457240     1.434886
Co     2.350466     1.536106    -0.616872
Co     1.125720    -1.142074     0.872797
Co    -0.769126    -1.417639    -2.140903
Co     1.660237     1.159119     2.100065
Co    -3.071402     0.311922     0.757279
Co    -1.017425     0.010718     0.859933
Co    -1.703460    -1.304966    -0.353555
Co     1.160919    -0.742036    -1.780944
Co    -0.489046     0.170033    -0.853108
Co     0.081922     1.453325     0.996562
Co    -2.186144    -1.087973    -1.403999
Co     0.489562     1.843408     2.109971
Co     2.590630     0.781235    -0.246324
Co     0.389095    -2.568212    -0.155348
Co    -1.288840    -1.336337    -1.257489
Co    -2.976863     0.582480    -0.150460
Co    -1.834794     1.167848     2.145966
Co     0.412470     0.302353    -2.865866
Co     0.347842    -2.127497     1.421367
Co     1.466399     2.006916    -0.097767
Co    -1.279584     0.884996     0.569843
Co    -1.870517    -0.222972    -2.394988
Co     1.794508    -1.696213    -0.612376
Co     0.386020    -0.273092    -1.200028
Co    -1.326935     1.203279    -0.298371
Co     1.487251     2.227964     0.837018
Co     1.814142     0.532767    -1.818035
Co    -1.523058     0.180442     2.485625
Co     2.324358    -1.041163    -0.279575
Co    -0.292540     1.736616     2.565385
Co    -0.441483    -1.698899     0.436055
Co     0.781906     2.509308     0.295879
Co    -0.933945     2.392172     0.209741
Co     1.906263     1.436739     1.152754
Co     0.098650    -1.864392    -2.500464
Co     2.897200    -0.542344    -0.971994
Co    -1.999128     0.196152     0.906002
Co     0.103534     0.741001    -1.538443
Co     2.072919    -0.255524    -1.573896
Co    -1.036510    -2.223392     0.780942
Co     0.887186     1.083238    -1.419388
Co    -1.127194     2.057613     1.078393
Co     0.934049    -1.349290    -2.252968
Co     1.412665     0.624844    -2.555087
