30

Cd   -1.504508     0.919610     0.266253
Cd   -0.721802     1.080247    -1.438019
Cd    0.451195     0.629684    -0.570971
Cd   -0.934329    -0.372912     1.024975
Cd   -0.395830    -0.722599    -0.558945
Cd    0.000691    -0.091469     0.935097
Cd   -0.537226     0.296540    -0.699899
Cd   -1.686286    -0.004930     0.560754
Cd    0.325438     0.704857     0.407814
Cd    0.063411     0.537898    -1.482545
Cd    0.080585     1.401283    -1.011657
Cd   -1.555925     0.185110    -0.397551
Cd   -1.184701    -0.625130     0.025901
Cd    0.477776     1.522295    -0.146466
Cd    0.039444     1.600648     0.693867
Cd   -0.899468     1.436188     0.808465
Cd   -0.272412     0.793792     1.158896
Cd   -1.240787    -0.541230    -0.959531
Cd   -0.744058     1.864721    -0.847572
Cd   -0.514344    -0.250268    -1.500914
Cd   -0.341135    -0.814144     0.425886
Cd   -1.333425     1.093499    -0.692903
Cd   -0.699305     0.245983     0.315834
Cd   -1.293694     0.323685    -1.343619
Cd   -1.198742     0.560717     1.142307
Cd    0.223793    -0.167906    -0.027917
Cd   -0.284406     2.105795    -0.047446
Cd   -1.205088     1.818354    -0.017069
Cd   -0.458152     1.151075    -0.122691
Cd    0.305744    -0.243876    -1.007187
30

Cd     1.767176    -0.216954     0.025232
Cd    -0.541100    -1.775956     0.604411
Cd     1.160421    -1.533236     0.954007
Cd     0.340825    -0.105052     0.857572
Cd     0.888383     0.272974    -0.031282
Cd     0.503339    -1.766088     0.396120
Cd    -0.168404     0.292594     0.149001
Cd     0.934233    -0.889167    -1.201768
Cd     0.864371    -0.749683     0.202853
Cd     0.809326    -0.772482     1.448215
Cd     0.344783    -0.643314    -0.507842
Cd     0.047151    -1.176188    -1.297338
Cd    -0.051461    -0.796226     0.493148
Cd     0.312855     0.384186    -0.762414
Cd     1.127001    -0.106766    -0.735192
Cd     1.399843    -1.762283     0.093756
Cd     1.478463    -0.911227    -0.491407
Cd    -0.653090    -0.078396     0.929259
Cd    -1.007009    -0.823104     0.848639
Cd    -1.029595    -1.182983     0.027422
Cd    -0.299311    -1.628830    -0.307245
Cd     0.753976    -1.554439    -0.650022
Cd    -0.179665    -0.604168     1.327760
Cd     1.867268    -0.949112     0.715161
Cd    -0.651176    -0.857567    -0.781108
Cd    -0.958267    -0.303984     0.005162
Cd     0.186362    -1.475668     1.125247
Cd     1.340799    -0.177268     0.976248
Cd    -0.576345     0.074778    -0.718234
Cd    -0.024448    -0.292579    -1.321046
