66

Li   -0.397164     1.215726    -2.103557
Li   -1.290252    -1.994812    -0.640423
Li   -1.509980    -1.216887    -1.390756
Li    1.996499     0.123350     1.486586
Li    2.261279    -0.303807    -0.710118
Li    1.320704    -1.849326     0.637316
Li    1.554785     1.725405    -0.033116
Li    0.032589    -0.770463     2.136595
Li    0.177470     1.431283     1.724201
Li    0.468164    -1.473961    -1.407309
Li   -1.039159     1.727992    -1.342101
Li   -1.948432    -1.403677     0.086498
Li   -2.224077     0.747977     0.199691
Li   -2.298054    -0.379431     0.414848
Li   -1.367748     0.762554    -1.768666
Li   -1.749567     1.527661    -0.469417
Li    0.600608     0.752125    -1.824011
Li   -2.139542    -0.596380    -0.661145
Li   -2.059850     0.540166    -0.879461
Li   -0.911710    -1.743358     0.359910
Li   -0.676097     1.809301    -0.307579
Li   -1.610622     0.271134     0.999773
Li    1.669726    -0.869473     1.068543
Li    2.142951    -0.091183     0.389824
Li    1.787581     0.931336     0.730655
Li    1.093705     0.784004     1.617155
Li    1.802773    -1.085678    -0.038490
Li    1.020486    -0.326893     1.824833
Li    1.919934     0.716572    -0.377137
Li    1.373126    -0.893847    -1.069776
Li    0.102487     0.332935     1.942968
Li    0.679071    -1.320071     1.395776
Li    0.870856     1.590050     0.851279
Li    1.443313     0.223216    -1.280718
Li    0.896301    -1.674499    -0.389069
Li    1.086425     1.247635    -0.938010
Li    0.202738    -1.816190     0.494718
Li   -0.445817    -1.268824     1.252299
Li   -0.254907     1.633947     0.708592
Li    0.439743     1.785014    -0.176565
Li   -0.801166    -0.251110     1.580849
Li   -0.727900     0.857358     1.372216
Li    0.539832    -0.365263    -1.628165
Li   -0.232986    -1.624227    -0.534033
Li   -0.440717    -0.837483    -1.308744
Li   -1.297725    -0.164768    -1.195415
Li   -0.036112     1.290700    -1.069203
Li   -0.362300     0.290106    -1.517748
Li   -1.272841    -0.740177     0.676401
Li   -1.154920     1.043072     0.339527
Li    0.333369    -0.017378     0.157070
Li   -1.107912    -0.939632    -0.412977
Li   -0.985692     0.811365    -0.748298
Li   -1.446343     0.054220    -0.101268
Li    1.148584     0.052167     0.810259
Li    1.278686    -0.158302    -0.270321
Li    0.817480    -0.917504     0.392605
Li    0.932169     0.839422     0.063019
Li    0.184925    -0.387001     1.129761
Li    0.256452     0.694346     0.927394
Li    0.399407    -0.734435    -0.612440
Li    0.471099     0.359718    -0.816792
Li   -0.272724    -0.869860     0.254959
Li   -0.157964     0.881785    -0.071127
Li   -0.618625     0.123843     0.575871
Li   -0.466408    -0.091587    -0.508040
66

Li     0.769664     0.446607    -0.942766
Li     1.225897    -1.297257    -1.344120
Li     1.456635    -1.535688    -0.122964
Li    -0.382542     0.371089     1.662667
Li    -0.344115    -0.672622     1.852017
Li    -0.174200     0.746233    -0.486918
Li     0.082877    -0.421016     1.007440
Li    -0.531001    -1.802439     0.039873
Li    -2.259714     0.410866    -0.605047
Li    -2.026776    -1.018768     0.858034
Li     0.315137    -0.982160    -1.500671
Li    -1.735035    -0.918741    -1.424255
Li    -0.715451     0.679897    -1.352897
Li    -1.306227    -1.911605     0.601034
Li    -0.745534     1.555086     0.240291
Li     0.003524    -0.984901    -0.058989
Li    -1.076862    -0.986141     0.195982
Li     1.547586    -0.506781     1.391698
Li     1.915461     0.425133     0.840754
Li     1.179287     1.513939    -0.760484
Li     0.585430    -0.046630     1.870217
Li     1.294332     1.271739     1.063644
Li     0.283932     1.803289     0.742253
Li    -2.066626     1.012213     0.236503
Li     2.553565     0.148552    -0.100646
Li     0.878896    -0.750320     0.396957
Li    -1.749090     1.730182    -0.221584
Li     0.558023    -1.203680     1.401480
Li    -1.705193    -0.059780     0.221992
Li    -0.589802     1.547750     1.386724
Li     0.476099    -1.650556     0.419348
Li    -0.142310    -0.214091    -0.875760
Li    -0.835811     1.647721    -0.822985
Li     0.412989     1.007333     1.591781
Li    -1.290202    -1.424815     1.611301
Li    -2.095878    -0.846471    -0.384726
Li     1.160338    -0.275028    -1.639013
Li    -1.501626    -1.737499    -0.418662
Li    -0.715969    -0.429794    -1.658720
Li     0.816752    -0.668496    -0.604709
Li     0.986036     0.221738     0.898444
Li    -1.060838    -0.458983     1.046269
Li     1.366967     0.448290     1.810022
Li    -1.266227     0.678537     0.740811
Li    -0.635339     0.013098     0.155534
Li    -1.283602    -0.162471    -0.594723
Li    -1.835347     0.056496    -1.573125
Li     1.569700    -1.431537     0.834247
Li     0.119365     1.263133    -1.242701
Li     1.778883    -0.565719    -0.676440
Li     1.810167     0.520077    -0.903618
Li     1.440860     0.046043     0.018803
Li     1.251677     2.007269     0.140761
Li     1.792297     1.050650    -0.066024
Li    -0.731274    -1.115654    -0.888402
Li    -1.814511     1.155223    -1.144838
Li    -1.315026     0.882726    -0.244541
Li     1.178604     0.849447    -1.722753
Li     0.285814     0.040181    -0.048006
Li     1.905062    -0.598827     0.437383
Li    -0.169083     0.810927     0.733601
Li     0.818306     1.007415     0.071745
Li     0.176990     0.129480    -1.859032
Li     0.355339    -1.652607    -0.578898
Li     0.125686     1.782698    -0.390289
Li    -0.362432    -1.266157     0.965315
