98

Li    0.341878     2.611091     0.768521
Li   -2.086557    -0.140113    -2.008464
Li    2.320262    -1.543791     0.800234
Li   -0.710637    -2.556247    -0.162531
Li    1.184048    -0.759412    -2.237284
Li   -2.710565    -0.410063     0.115633
Li    0.614090    -1.469044     2.234611
Li    2.681609     0.494359    -0.031174
Li   -0.640424     1.552506    -2.148481
Li   -0.407505    -1.805684     1.911453
Li   -2.245988    -1.220082     0.739692
Li    0.460377     1.345747    -2.222680
Li    2.297519     0.760573    -1.051773
Li    1.288169     0.938546     2.000277
Li   -1.715262     1.895214     0.086032
Li    1.364967    -0.630266     2.199492
Li   -2.571654     0.623643    -0.309524
Li   -1.524305     1.616878    -1.454197
Li    2.410434     0.363569     1.053619
Li   -0.300583     2.022680     1.482472
Li   -2.244222     0.760655    -1.372778
Li    2.214897    -0.659681     1.469253
Li    0.180922     1.179868     2.111448
Li   -1.345720     1.666142     1.138438
Li   -1.509322     0.617335     1.574446
Li   -0.577451     0.320510     2.168377
Li   -1.336906    -1.525751     1.335082
Li    1.389751     1.060598    -1.650460
Li    0.821568     1.793795     1.398043
Li   -0.692347     2.276014     0.433146
Li   -2.400239    -0.274987    -0.947524
Li    1.468703    -1.507338     1.518357
Li    2.502907    -0.525344     0.385389
Li   -1.365126     0.706718    -2.079913
Li   -1.478570    -1.889522     0.289573
Li   -0.560400    -2.181982     0.874772
Li    0.823583     0.293424    -2.230859
Li    1.741186     0.001146    -1.646023
Li    1.113940     1.928889     0.309104
Li    0.189935     2.223207    -0.279814
Li   -0.996905    -0.348054    -2.092246
Li    1.947415    -1.285890    -0.215676
Li    1.311795    -1.888970     0.480455
Li   -1.632733    -0.951067    -1.396248
Li   -1.174709    -1.755756    -0.781102
Li    0.302128    -2.226164     0.160164
Li    1.569156    -1.024326    -1.227395
Li    0.092519    -0.553982    -2.168533
Li   -0.078089    -1.961874    -0.857948
Li    0.552938    -1.363417    -1.548937
Li   -0.203525    -0.738042     2.107629
Li   -2.027343    -0.157111     0.945213
Li    1.853854     1.215790    -0.148658
Li    0.034036     1.795446    -1.308525
Li    0.539006     0.099703     2.074786
Li   -1.888066     0.872786     0.527886
Li   -1.949292    -1.090944    -0.332625
Li    0.456795    -1.857340     1.200901
Li    2.133701    -0.266369    -0.635909
Li   -0.271653     0.499794    -2.168968
Li    1.582919     1.092463     0.927824
Li   -0.839742     1.864140    -0.616266
Li   -0.542217    -1.163471    -1.483338
Li    0.939577    -1.635458    -0.538913
Li   -1.129514    -0.459335     1.542636
Li    0.956899     1.519491    -0.741982
Li   -0.092533     0.560852     0.425475
Li   -1.563745     0.997185    -0.546438
Li    1.393981     0.055077     1.338676
Li   -0.515826     0.975407     1.296798
Li    0.121139     1.567218     0.593170
Li   -0.884761     1.221309     0.267343
Li    0.578929     0.755088     1.200230
Li    1.490356    -0.820996     0.669090
Li   -1.399270     0.099419    -1.172620
Li   -1.714293    -0.031700    -0.122582
Li    0.650039    -0.784796     1.384331
Li   -0.497333    -1.486212     0.037559
Li    0.745879    -0.307111    -1.323759
Li    1.675150     0.188153     0.260898
Li   -0.688094     0.940903    -1.245321
Li   -1.259943    -0.829505     0.488416
Li   -0.352013    -1.118702     1.067088
Li    1.299826     0.448106    -0.742669
Li    0.392799     0.737016    -1.320765
Li   -1.043076     0.211632     0.687377
Li   -0.151129    -0.072475     1.255862
Li   -0.027027     1.172678    -0.424632
Li    0.863341     0.889074     0.142846
Li    0.690188    -0.119253     0.547137
Li   -0.738358     0.335773    -0.363350
Li    0.500902    -1.166311     0.354578
Li   -0.956164    -0.702201    -0.574086
Li    1.128136    -0.571217    -0.332392
Li   -0.328718    -0.107173    -1.260921
Li    0.125771    -0.906735    -0.650485
Li   -0.292843    -0.450241     0.234454
Li    0.322777     0.133897    -0.439517
98

Li     0.271417     1.495080     1.698407
Li    -1.233909    -0.379652    -0.340603
Li    -0.839187    -1.151874    -1.003532
Li    -0.580717    -2.094327     1.603314
Li     0.884379     2.156447     1.234780
Li    -0.255769    -0.606742     1.398120
Li    -1.385177    -1.975050     0.744199
Li    -0.225600     0.160411    -0.473267
Li    -0.376961     1.193066    -0.208078
Li    -1.879962    -0.990800     0.810494
Li    -1.107445     1.334911    -1.531954
Li     1.554407    -1.976689    -0.168891
Li     0.292087     0.286164     1.567703
Li     0.792809    -0.860319    -1.984729
Li     1.355012     2.334640     0.116535
Li     0.834749    -0.593828     1.629404
Li     0.072456    -0.573158    -1.068746
Li    -1.817659    -0.677163    -1.235569
Li    -1.751347    -0.280489     1.357275
Li    -1.072735     1.599579     0.451573
Li    -0.257230    -1.975408    -0.242327
Li     0.292692    -1.568950     1.465866
Li     1.208312    -0.539952    -0.977485
Li    -1.339609     0.666753     2.187482
Li     0.601786     2.121898    -1.590660
Li    -1.571691     0.353886    -1.775420
Li     0.502437     2.831484     0.406023
Li    -1.131643     0.715915    -0.710074
Li     2.138745    -1.066499    -0.733790
Li    -2.152579     1.309651    -1.022036
Li    -0.736847    -2.159336    -1.234155
Li     1.941439    -0.580178     1.111275
Li    -1.199415    -1.198413     1.518826
Li     2.315116    -1.444812     0.478071
Li     2.033905     0.565026     0.606595
Li    -0.370085     2.260393    -0.156726
Li    -0.146599     0.943311     0.782161
Li     1.385614     1.451732     1.916318
Li     1.006512     1.129537     0.993234
Li    -0.422201    -1.547606     0.728535
Li    -0.216718     1.531840    -2.198539
Li     0.438035    -2.105601     0.396719
Li     1.054150     0.070720     0.647570
Li     0.565705     2.460683    -0.640457
Li     0.168582    -0.387107     2.352418
Li    -0.799848     1.448583     1.501123
Li     2.488660     0.796936    -0.306467
Li     1.382187     0.258636     1.618508
Li    -0.867814    -0.272281     2.168452
Li     0.686954     1.408298    -0.803854
Li     0.453310     1.808005     0.273285
Li     1.498874     0.981222    -1.079105
Li    -1.218808    -2.324366    -0.265398
Li    -0.239946    -1.041299    -1.992671
Li    -0.151755     2.045633     0.904479
Li     0.232985    -1.618086    -1.257608
Li    -0.080476    -0.023808     0.502180
Li     0.730559     0.261938    -0.944784
Li    -1.887495     1.062993     0.052910
Li     0.595243    -0.913499     0.558612
Li    -1.031378     0.434168     0.338805
Li     2.328214    -0.225713     0.038074
Li     1.373609    -1.785128    -1.088604
Li    -0.832878    -0.159199    -1.398663
Li    -1.207557     1.854963    -0.607446
Li     2.269527     0.012696    -0.965642
Li     1.811781     1.732225     0.807704
Li     1.336897     0.110979    -1.739123
Li    -0.410237    -2.503927     0.547462
Li     0.534999    -0.246828    -0.274098
Li     0.250864     0.079122    -2.053106
Li     0.786675     0.636804     2.409444
Li    -1.340871    -1.474604    -1.892805
Li    -0.301665    -1.375379     2.285675
Li    -0.299187    -0.868270    -0.124530
Li     0.761098     1.018641    -1.793442
Li    -0.801223     0.239491     1.366441
Li    -1.981489     0.073167     0.374800
Li    -1.289031    -1.421529     0.049171
Li    -2.180640     0.192477    -0.748054
Li    -0.321777     0.685613     2.242694
Li     1.439871     0.238822    -0.271152
Li     1.426929     1.958561    -0.835482
Li    -0.742593     0.488811    -2.223468
Li     0.535979    -2.498395    -0.626692
Li     1.382793    -0.757958     0.056138
Li    -0.348966     1.862276    -1.167681
Li    -0.115149     0.864161    -1.272595
Li    -1.339227    -0.423387    -2.243676
Li     1.488601     1.226043    -0.046936
Li     0.528578    -1.325655    -0.373222
Li    -0.959309    -0.461882     0.663990
Li    -2.093829    -0.907726    -0.239836
Li     0.606116     0.646908    -0.059270
Li     1.278895    -1.453722     0.943488
Li    -2.286890    -1.820316     0.042556
Li    -1.685091     0.779303     1.088500
Li    -1.695067    -1.776848    -0.996894
