98

Pb    -0.523343    -0.977033    -0.589670
Pb    -1.071356     2.697034    -0.721182
Pb     1.263547     1.816112    -1.180049
Pb    -0.824768     1.093613     1.821381
Pb    -0.115382    -0.051946     1.768072
Pb    -0.605943     1.357009     0.545512
Pb     0.192445    -0.513322    -1.106934
Pb     1.441101     1.788090     0.957848
Pb     1.104137    -0.059694     0.598202
Pb    -1.225218    -0.736841     1.415501
Pb     1.352246     0.185780    -0.766526
Pb    -1.255914     0.181834    -0.514406
Pb     0.410968     0.422216    -0.889864
Pb     0.164654     0.178518     0.464993
Pb    -0.040771    -1.447845    -1.316170
Pb    -0.709485    -1.866826    -0.783558
Pb     1.915684     1.338184     0.270185
Pb    -1.069729     1.117702    -0.312223
Pb    -0.349007     0.646832     1.153714
Pb    -1.007859    -0.518993     0.117430
Pb     0.399307    -0.257743    -2.381644
Pb    -0.764596    -0.278313    -1.220649
Pb    -0.554229    -0.285439     0.945169
Pb     0.401323    -0.525012     1.103699
Pb     0.656766    -0.958621    -1.787723
Pb     0.344603     2.082847    -1.326139
Pb     1.096784     0.890719    -1.403866
Pb    -0.110332     1.800463    -2.108400
Pb     0.410658    -1.192426    -0.458611
Pb    -0.393258     2.293193     0.754593
Pb     1.141591    -0.734263    -0.976727
Pb     0.135475     1.126169    -1.511198
Pb    -0.103314     0.895234    -0.176544
Pb     0.538953     2.063442     0.882866
Pb     0.098316     1.838596     0.029795
Pb     0.803007     1.576403    -1.983604
Pb    -1.307773     2.463127     0.579239
Pb    -0.836798     2.030335    -0.105721
Pb    -0.820011     1.361548    -1.664288
Pb    -0.818513     0.423829     0.327138
Pb    -1.209126    -1.429571    -0.093811
Pb    -0.512090    -0.031286    -2.507081
Pb    -0.279636    -0.756573    -1.940031
Pb    -0.143305     2.540491    -0.620280
Pb    -0.313657    -0.963136     1.540041
Pb    -0.056963    -0.760082     0.264944
Pb    -1.687404    -0.048753    -1.337646
Pb     0.173545    -1.436711     0.870252
Pb     1.291684     0.865876     0.804620
Pb    -1.186964    -0.489157    -2.023867
Pb    -1.927433    -0.286232    -0.017361
Pb    -1.767030     0.641055     0.199629
Pb     0.779735     1.337438     1.481173
Pb    -1.560378     1.565841     0.410673
Pb    -1.030375     0.173913     1.640041
Pb     1.017291     1.574815     0.149419
Pb     0.891293    -0.981904     0.400046
Pb    -1.519822     0.885638    -1.160149
Pb    -1.311906     0.874877     1.041396
Pb     0.607169     0.662932    -2.206340
Pb    -1.470335    -0.752787    -0.721498
Pb    -0.969570    -1.192560    -1.411494
Pb     0.203296    -2.085350    -0.656920
Pb     0.656908    -0.282598    -0.250192
Pb     0.894117    -0.037451    -1.606931
Pb    -0.294847    -0.040008    -0.379587
Pb    -0.769141    -1.240880     0.752506
Pb     0.788947     2.310782    -0.492235
Pb    -0.573304     0.666433    -1.021639
Pb     1.755343     0.417923     0.075507
Pb     1.202233     2.472144     0.344444
Pb    -1.665201    -0.962316     0.606691
Pb    -0.356681     1.603625    -0.825563
Pb     0.088247     0.869233     1.947957
Pb     0.348566     1.121055     0.677442
Pb    -0.308613     0.888010    -2.330035
Pb    -1.974693     1.333821    -0.437873
Pb     1.677615     2.022091    -0.343101
Pb     0.598115     1.367954    -0.695211
Pb     0.875751    -1.627918    -1.144908
Pb     1.557432    -0.505782    -0.126620
Pb     0.290828     2.733384     0.225739
Pb    -0.289751    -1.694181     0.053351
Pb    -0.598351     2.273602    -1.435304
Pb     0.853791     0.645907    -0.047388
Pb     1.541785     1.113321    -0.571069
Pb    -1.310736     1.812833    -0.962495
Pb    -0.148425     1.595055     1.385775
Pb    -0.070958     0.192701    -1.713083
Pb    -1.081839     1.795249     1.224135
Pb    -1.742088     2.236734    -0.233178
Pb     0.603741     0.402912     1.308134
Pb    -1.515200    -0.052074     0.829416
Pb    -1.026135     0.431798    -1.860705
Pb    -0.636120     2.923902     0.091488
Pb    -2.149245     0.413223    -0.635194
Pb     1.314426    -1.406039    -0.332728
Pb     0.639408    -1.861751     0.155104
98

Pb     0.399231    -1.394250    -1.300974
Pb    -0.487883    -1.058907    -1.254213
Pb    -0.240345    -1.127659     2.186048
Pb     0.615636     1.045581    -0.293811
Pb     0.689672    -0.636872     0.379588
Pb     0.989333     0.430697     0.360491
Pb     2.275702    -0.546213    -0.238134
Pb    -0.745140     1.844273     0.418672
Pb     1.074389     0.585689    -0.919823
Pb    -1.772688    -0.349102    -0.531991
Pb     1.095615    -0.524027     2.472092
Pb     1.915343    -1.309010    -0.388893
Pb     1.236255    -1.868100     1.658718
Pb    -1.118787     0.684939     1.731237
Pb    -0.923697    -0.778005     0.774806
Pb    -0.232613    -0.265837     0.158529
Pb     1.359296     0.530432     1.294825
Pb    -0.233183     1.291541    -0.339866
Pb    -0.789581     0.998762    -1.050692
Pb     0.018381     0.637898     0.366021
Pb     2.045754    -0.740171     1.050916
Pb     0.754836    -1.955491    -0.511517
Pb     1.175724     1.166058     0.567685
Pb     0.436163     0.232130    -1.641108
Pb    -0.678020     0.144869     0.901602
Pb     1.581174    -0.882263     0.346597
Pb     1.608208    -0.019256     1.804423
Pb     2.408609     0.251639     1.172477
Pb    -0.834094    -0.450013    -0.570485
Pb     1.096745    -0.979894    -1.759927
Pb     2.150295     1.007343     0.682675
Pb     0.224532    -1.667562     1.438031
Pb     0.168261    -0.351812     2.333624
Pb    -1.243806    -0.067839     0.144878
Pb    -1.536846    -1.061821     0.054613
Pb    -1.328626    -0.255146     1.514778
Pb    -0.661080    -1.431810     1.407145
Pb     2.451422     0.460324    -0.138803
Pb    -1.240441     1.401882     1.000558
Pb     0.156001     1.454427     0.567687
Pb    -0.755260    -0.385079    -1.844348
Pb    -1.970185    -0.480044     0.695247
Pb    -0.384419    -0.458975     1.691954
Pb     0.536910    -0.751393     1.639333
Pb     0.757118    -1.523158     2.290290
Pb    -1.266492    -1.647503     0.727215
Pb     0.422384     0.161307    -0.282431
Pb     2.043983     0.290305    -0.788826
Pb     1.592257    -2.236863    -0.479827
Pb     0.080128    -2.360247    -0.052571
Pb     1.384289    -0.025622    -1.589439
Pb     0.255539    -0.629662    -1.797508
Pb    -0.780628     0.045080     2.231827
Pb    -0.214576    -1.742823    -0.644767
Pb    -1.086221    -0.958854     2.159303
Pb     1.853120     0.004119     0.475088
Pb    -1.300073     1.455426    -0.265398
Pb     0.613680    -2.250907     0.728066
Pb     1.535081     0.706409    -0.186357
Pb     1.781596    -0.725105    -1.128739
Pb    -0.879225    -2.199121    -0.114008
Pb    -0.955879     0.975470     0.323099
Pb     0.052513     0.843262    -1.077824
Pb     2.413904    -1.080052     0.322315
Pb    -0.609674     0.428746    -0.387687
Pb    -0.174170    -0.077591    -1.129747
Pb     0.778160    -0.480205    -1.114520
Pb     1.357862    -1.104972     1.718285
Pb     0.437394    -1.604750     0.189390
Pb    -1.045685     0.192412    -1.261336
Pb    -0.117462     0.497335     1.816926
Pb     0.213176    -0.036516     1.040327
Pb     1.039299    -1.144812    -0.541899
Pb    -0.564638    -1.275353     0.070123
Pb     0.945504    -2.569949     0.075642
Pb    -1.096423    -1.403001    -0.577739
Pb     1.120668    -0.265251     1.032588
Pb    -1.938689     1.150831     0.362712
Pb     1.388448    -0.245370    -0.357199
Pb    -0.377696     0.621456    -1.750121
Pb     1.358066    -1.785543     0.262251
Pb     0.861864    -1.291492     0.939972
Pb    -2.224461     0.319805     0.177036
Pb     0.685988     0.281773     1.861315
Pb    -1.595724     0.404248     0.874353
Pb     2.747059    -0.230453     0.492763
Pb    -0.366896    -1.957305     0.803425
Pb    -1.604433     0.611881    -0.501373
Pb     0.560365     0.877463     1.268828
Pb     0.002040    -0.933460     0.831639
Pb    -1.438825    -0.674213    -1.221461
Pb     2.088878    -2.113679     0.163074
Pb     1.897942    -1.537898     1.059964
Pb     1.465522    -1.546539    -1.159255
Pb     0.146571    -0.900687    -0.542356
Pb     1.591024    -2.411693     0.758318
Pb    -1.585664    -1.080273     1.316063
Pb    -0.320243     1.102040     1.079736
