201

Ag     14.511809     14.511918      4.401217
Ag     12.500007      6.403959     18.572330
Ag      8.422296     10.446582     18.590222
Ag     12.499975      4.394209     16.541350
Ag     20.605371     12.500131     16.541350
Ag     10.488024     14.511867     20.598824
Ag     10.446756     18.617234     16.551603
Ag     20.666403     14.518331     14.516078
Ag     20.666432     10.481791     14.516174
Ag     10.488273     14.511883      4.401139
Ag     10.446654      8.422296     18.590052
Ag      4.333602     14.518216     14.515930
Ag     14.553135      6.382685     16.551854
Ag      6.382825     10.446829     16.551874
Ag     12.500002      6.403986      6.427586
Ag     14.553336     16.577780     18.589986
Ag     14.518246      4.333587     10.484266
Ag      6.357556      8.398455     14.549290
Ag     14.553155      6.382769      8.448418
Ag     10.481613     20.666423     10.483924
Ag      8.398360      6.357608     10.450901
Ag     10.446686     16.577651      6.409796
Ag     18.642449      8.398385     14.549338
Ag     14.518267     20.666403     14.515875
Ag      6.382979     14.553252      8.448010
Ag      6.368896      6.369008     12.500009
Ag      8.398376     18.642358     14.549102
Ag     18.631006      6.369011     12.500227
Ag      6.404168     12.499967      6.427230
Ag     18.642356     16.601713     14.549187
Ag     16.573250      8.426785     16.535938
Ag      6.382823     10.446774      8.448066
Ag      6.357612     16.601559     10.450627
Ag     16.573182     16.573456     16.535805
Ag     14.553162     18.617294     16.551693
Ag     16.601667      6.357613     10.450996
Ag     12.499874      4.279418     12.500173
Ag     10.481742     20.666407     14.515910
Ag     14.518371      4.333558     14.515998
Ag     12.500087     12.499934      4.378053
Ag      8.398364     18.642425     10.450772
Ag     10.446773      6.382840      8.448336
Ag     12.499928     20.720471     12.499863
Ag     18.642366      8.398356     10.450898
Ag     10.446628      8.422342      6.410105
Ag     16.601671      6.357460     14.549254
Ag     14.512012     10.488020      4.401220
Ag     14.553392      8.422243      6.410117
Ag     18.631072     18.631172     12.499889
Ag      6.357582     16.601477     14.549122
Ag     16.601653     18.642452     14.549031
Ag     18.617082     14.553201      8.448133
Ag     10.488263     10.488013     20.598866
Ag      6.357680      8.398420     10.450711
Ag      8.426732      8.426794     16.535933
Ag     18.642352     16.601628     10.450691
Ag     18.595809     12.500091     18.572739
Ag     14.512045     14.511962     20.598835
Ag      8.422342     10.446604      6.409731
Ag     14.511737     10.488059     20.598821
Ag      4.333582     14.518287     10.483732
Ag     16.601574     18.642465     10.450800
Ag      4.333556     10.481717     10.483896
Ag     12.499985     18.596079     18.572511
Ag     16.577731     10.446546      6.409828
Ag      8.422357     14.553360     18.590288
Ag     10.446592     16.577698     18.590001
Ag     20.666382     10.481692     10.484088
Ag      4.279592     12.499985     12.499791
Ag     14.553198     18.617099      8.448218
Ag     16.577665     14.553397      6.409776
Ag      6.368986     18.631100     12.499829
Ag      6.404107     12.499963     18.572707
Ag     18.617069     10.446936     16.551895
Ag      8.398285      6.357599     14.549101
Ag      4.333518     10.481780     14.516015
Ag      8.426689      8.426541      8.464141
Ag     10.481657      4.333607     10.484156
Ag     20.720363     12.500012     12.500098
Ag     16.573161     16.573255      8.464031
Ag     20.666399     14.518302     10.483936
Ag     16.573400      8.426493      8.464232
Ag     18.595806     12.499898      6.427330
Ag     18.617245     10.446706      8.448153
Ag     10.481589      4.333483     14.516030
Ag     18.617321     14.553295     16.551962
Ag      6.382815     14.553221     16.551836
Ag      8.426761     16.573248      8.464024
Ag     16.577654     10.446595     18.590117
Ag     14.518356     20.666386     10.483902
Ag      8.422375     14.553390      6.409718
Ag     14.553372     16.577629      6.409855
Ag     14.553465      8.422334     18.589995
Ag     10.446804      6.382856     16.551808
Ag     12.500032     12.499981     20.621956
Ag     16.577710     14.553494     18.590290
Ag     10.488055     10.488094      4.401267
Ag     10.446813     18.617226      8.448165
Ag      8.426539     16.573470     16.535796
Ag     12.499973     18.595909      6.427419
Ag     16.523957     12.500072     20.552701
Ag     12.500042      8.475574      4.447740
Ag     16.523967     12.499860      4.447350
Ag      6.371538     10.485423     12.499946
Ag     12.499754     16.588043     12.499863
Ag     12.500086      8.475648     20.552431
Ag     20.632933     16.580508     12.499977
Ag     12.499954     20.605453      8.458705
Ag     18.628366     14.514777     12.500001
Ag     12.499910     16.524419     20.552420
Ag     12.499978      4.394349      8.458813
Ag     16.571829     16.571619     12.499994
Ag     10.480781     14.519438     16.515673
Ag      8.432438     12.499910     16.494474
Ag     16.580479     20.633261     12.499834
Ag     20.605229     12.499936      8.458859
Ag      4.394624     12.500036     16.541215
Ag     10.453849     10.454263     12.500247
Ag      8.419516     20.633205     12.499834
Ag     12.499842     12.500322     16.530383
Ag     10.485371      6.371454     12.500129
Ag     12.500121     12.499890     12.500129
Ag     14.546295     14.545934     12.500074
Ag     12.500060      8.411964     12.500211
Ag      4.367040     16.580463     12.499834
Ag     14.546045     10.454219     12.500072
Ag     14.519237     10.480679      8.484527
Ag     14.514615      6.371565     12.500171
Ag     12.500001     12.499717      8.469677
Ag     10.485351     18.628447     12.499942
Ag     12.499960      8.432449     16.494403
Ag     12.500063     16.524152      4.447404
Ag     12.499904     20.605711     16.541083
Ag     16.587611     12.500174     12.500049
Ag      8.476005     12.500020     20.552811
Ag     16.567564     12.499999      8.505628
Ag     12.500059     16.567319     16.494246
Ag     16.567576     12.499898     16.494517
Ag     10.453867     14.546153     12.499870
Ag      8.432541     12.500110      8.505582
Ag     10.480453     10.480747     16.515568
Ag     10.480518     14.519345      8.484452
Ag      6.371436     14.514690     12.499928
Ag      4.394744     12.499893      8.458674
Ag     12.500064     16.567412      8.505725
Ag     14.519177     14.519634     16.515569
Ag     16.580623      4.366753     12.500203
Ag     14.514592     18.628687     12.499883
Ag     14.519571     10.480603     16.515756
Ag     18.628560     10.485326     12.500101
Ag     16.571774      8.428337     12.500146
Ag      8.419424      4.366814     12.500165
Ag     10.480866     10.480721      8.484417
Ag      8.428341     16.571531     12.500005
Ag      8.428225      8.428417     12.500059
Ag     14.519543     14.519523      8.484322
Ag     20.632990      8.419507     12.500206
Ag     12.499977      8.432678      8.505830
Ag      8.476057     12.499952      4.447250
Ag      8.412126     12.499942     12.499918
Ag      4.366952      8.419569     12.499986
Pd     14.538784     12.500109     14.502998
Pd     16.586007     14.550472     10.472421
Pd     18.662799     12.499986     10.463442
Pd      8.413986     10.449657     14.527552
Pd      6.337226     12.499906     10.463344
Pd     12.499969     14.525260     18.601922
Pd     14.525253     12.499953      6.397811
Pd     14.525325     12.500016     18.602231
Pd     12.499886     10.461470     14.503008
Pd     12.499937      6.337228     10.463807
Pd     12.500050     14.538831     14.503321
Pd     10.449634     16.585881     10.472449
Pd     18.662862     12.500071     14.536670
Pd     10.449442     16.586087     14.527345
Pd     10.461148     12.499906     14.503138
Pd     10.474731     12.500035     18.602178
Pd     14.550450     16.586050     10.472269
Pd      6.337150     12.500047     14.536515
Pd     14.550432      8.413935     14.527580
Pd     12.499993     18.662744     10.463518
Pd     14.550445      8.413998     10.472615
Pd     10.449534      8.413960     10.472561
Pd     12.500085     14.525296      6.397717
Pd     12.499948     14.538865     10.496681
Pd     16.586042     14.550592     14.527363
Pd     12.499930     18.662897     14.536298
Pd     12.500011     10.474651     18.602269
Pd     16.586035     10.449668     14.527711
Pd     14.538947     12.499852     10.496964
Pd     10.449524      8.414063     14.527549
Pd      8.413741     14.550501     14.527410
Pd     12.499989     10.474829      6.398139
Pd     10.474814     12.499936      6.397771
Pd     12.500127     10.461329     10.496801
Pd     12.499987      6.337269     14.536505
Pd      8.413848     10.449638     10.472560
Pd      8.414041     14.550435     10.472238
Pd     16.586093     10.449608     10.472545
Pd     14.550555     16.586093     14.527554
Pd     10.461134     12.500019     10.496735
201

Ag     16.570427     -7.537589     -6.347740
Pd     23.709267    -10.078510     -5.468838
Ag     13.553313     -1.984963     -7.574934
Ag     13.469561     -6.231910    -10.113803
Ag     18.203375    -11.611943    -12.661607
Pd     23.344352     -8.444344    -10.182885
Ag     20.479537    -13.253666    -11.667610
Pd     18.435860     -3.037913     -7.641368
Pd     17.645220     -7.224614     -3.675965
Ag     19.843029     -4.407826     -0.182820
Ag     20.401908    -10.538328      1.933628
Ag     23.668477     -6.417225    -12.041468
Pd     18.090157     -9.017902      0.863415
Ag     25.551575    -13.859981     -2.548677
Ag     20.549463    -17.072620     -4.985812
Pd     17.948005     -9.386257     -8.175720
Ag     16.342283    -13.334970      2.003849
Pd     21.002563    -14.983153     -7.080214
Ag     16.983933     -9.753031    -10.836435
Ag     22.342103     -8.730697    -12.717903
Ag     18.530569     -6.848132     -0.987516
Ag     18.727073     -9.573837    -14.368617
Ag     18.921198    -17.202923     -1.484714
Ag     13.614665    -10.043294     -3.541541
Ag     14.077659    -11.739117      1.210762
Ag     14.821567     -8.063083    -11.751129
Ag     11.667729    -10.831840     -9.008781
Ag     21.057823    -11.079854    -13.502264
Ag     13.924697    -12.355032     -7.945073
Ag     20.753365     -8.344264     -0.171496
Ag     19.947837     -0.531249     -6.692760
Ag     27.329961     -9.222956     -3.607688
Ag     13.360065    -14.427069     -6.080307
Ag     19.453222    -10.792840     -0.846752
Ag     14.622710     -1.517512     -4.847426
Pd     20.689318    -12.840347     -2.539030
Pd     17.134141    -13.602687     -4.342730
Ag     20.559471     -8.884749     -9.013423
Ag     20.314219     -2.780310    -11.246031
Ag     21.941906     -6.565012     -8.380637
Ag     23.849562     -5.837541     -2.953075
Ag     15.836501     -3.506560     -6.566249
Ag     17.275787     -9.195610     -1.878340
Ag     11.392393     -8.524226     -4.368107
Ag     15.370271     -9.418650      1.971949
Ag     19.679832     -4.863193     -9.213759
Ag     12.455136    -14.828732     -8.659291
Ag     24.662900     -9.871587     -2.783022
Ag     24.351873    -12.012804     -0.701052
Ag     18.002969    -13.186759     -1.723905
Ag     23.270662    -12.257086     -3.491844
Ag     22.987701     -1.837477     -3.042061
Pd     19.300739    -15.229743     -3.353403
Pd     16.631408    -11.849943     -8.913397
Ag     20.161657     -7.221921    -13.754306
Pd     18.482556    -11.096643     -3.455872
Pd     23.411014     -7.915279     -0.909146
Ag     16.194114    -13.944262     -6.901804
Ag     18.437563     -7.437769    -10.021355
Ag     21.562539    -12.436331      0.119116
Ag     24.333088     -7.680773      1.679506
Ag     25.525013    -10.046289     -9.021712
Ag     16.367971     -1.431710     -8.443491
Ag     22.079412     -5.938842      0.760638
Ag     19.038586    -13.020507      1.226683
Ag     16.114643    -10.018006    -13.533004
Ag     27.851665     -7.221308     -5.720696
Ag     13.030658     -8.330177     -8.208352
Ag     14.089374     -3.674676     -2.989614
Ag     21.428872    -16.832932     -2.379317
Ag     13.200823    -12.262508     -1.649408
Pd     19.833772     -8.783727     -2.721861
Pd     14.585702     -9.776635     -0.830773
Ag     10.047702    -10.865855     -5.266935
Ag     17.669724     -2.802248     -1.271568
Ag     22.538056     -4.311907    -10.179311
Ag     25.928231    -11.725076     -4.438387
Ag     11.238923    -12.805223     -6.884102
Ag     16.623115    -15.731551     -2.436265
Ag     17.496936    -15.267941      0.372972
Ag     18.350477    -15.415504     -5.983501
Ag     25.521470     -5.633501     -6.603278
Ag     23.221688    -12.587190    -12.554011
Pd     18.957054     -4.818632     -2.932769
Ag     24.570892    -14.140629     -5.223614
Pd     21.045400     -6.894245    -11.080388
Ag     22.762798    -10.445267     -8.139912
Ag     15.571557     -1.329924     -2.142329
Ag     16.862693    -17.806585     -6.862441
Ag     12.290070     -4.331200     -8.273934
Ag     12.801443     -6.098461     -3.751878
Pd     12.636923    -10.421144     -6.101863
Ag     24.627664     -5.920347     -9.321955
Ag     21.359473    -12.966799     -8.886853
Ag     14.694060     -5.488984      1.753430
Ag     13.183933     -4.010426     -5.596270
Ag     22.939657    -14.333155     -1.506246
Ag     17.168393     -1.027728     -5.786256
Ag     24.787220     -5.471821     -0.324261
Pd     19.760738     -9.298095    -11.808397
Ag     13.742120     -5.856495     -0.991022
Ag     21.509459     -4.742398    -12.911532
Ag     20.224438     -6.585690     -4.702282
Pd     21.528787     -8.617557     -6.333047
Pd     15.639890     -7.794260     -9.169948
Ag     14.924028     -3.821296     -9.244602
Ag     21.164316    -10.633995     -4.368853
Ag     24.545294    -10.275783    -11.802596
Ag     10.485142     -8.921820     -7.166944
Ag     17.512806     -7.580632    -12.838857
Pd     18.796098    -13.373164     -8.035373
Ag     11.827771    -10.230269      0.099652
Ag     17.844567    -13.774225    -10.527734
Ag     25.924942     -7.955170    -11.071887
Ag     26.969458    -11.443984     -1.687195
Ag     18.869005     -9.145613     -5.385491
Pd     16.683896     -3.192143     -3.769932
Pd     14.373293    -10.236302     -9.904370
Ag     23.346824     -4.011163     -7.449813
Ag     18.937313     -1.029539     -9.537048
Ag     12.122716     -8.748530    -10.794385
Pd     22.853252     -6.096630     -5.706896
Ag     23.027853    -10.067207      0.969045
Pd     16.268993     -9.575153     -4.388999
Ag     15.207513    -14.322196     -9.758475
Ag     16.130273     -5.764789    -11.066619
Ag     17.431655    -15.745613     -8.735714
Pd     20.686793     -4.546324     -6.647789
Ag     21.746830     -4.238597     -3.897422
Ag     18.213640     -0.778093     -3.186348
Ag     14.391258     -5.980194     -7.360078
Ag     16.847494     -6.995839      2.614892
Ag     24.933327    -12.042371     -7.150445
Ag     10.836646    -10.562593     -2.483522
Ag     18.849378     -5.227449    -12.067674
Ag     19.429335     -6.528026      1.726378
Pd     25.135056     -7.636125     -4.743365
Ag     22.630917    -14.710436    -10.705066
Ag     22.316386    -16.898822     -8.787827
Ag     22.498714     -3.935952     -1.157221
Ag     17.567913     -3.290773    -10.335808
Ag     17.677786    -10.941092      2.852208
Ag     21.256420     -2.472419     -8.513326
Pd     15.317267     -5.591215     -4.567481
Ag     17.540331    -11.535968     -6.261582
Pd     20.256615    -10.908619     -7.064074
Ag     14.740131    -16.401815     -7.782274
Ag     20.744402     -0.367730     -4.116579
Ag     19.079459     -8.549108      3.477188
Pd     14.799037    -12.081696     -5.180897
Pd     21.147921     -6.367209     -1.983474
Ag     19.244877    -11.187023     -9.831070
Ag     13.259109     -7.963016      1.005643
Ag     20.457818     -2.401713     -2.051044
Ag     21.771678     -8.061710      2.569025
Ag     23.139237    -16.556181     -5.944104
Ag     26.366435     -9.671159     -6.401623
Ag     16.309182     -5.206537     -1.972348
Ag     24.307660     -3.655564     -4.894785
Ag     10.938193     -6.742353     -9.123399
Pd     19.285882     -7.085526     -7.258615
Ag     14.463677    -14.081787     -3.223433
Ag     15.801704    -11.755138     -2.479526
Pd     13.936622     -8.090592     -5.433694
Ag     11.662188     -6.447559     -6.272875
Ag     22.485968     -8.341374     -3.779471
Ag     26.922697     -7.518979     -8.347610
Ag     24.030807    -12.299348     -9.905761
Ag     23.695947    -14.502681     -7.954162
Ag     26.218009     -7.443061     -1.920790
Ag     13.421314    -10.528919    -12.570739
Ag     19.703433    -13.013229     -5.244448
Ag     20.106119    -15.383954     -9.769368
Ag     15.611756    -12.160282    -11.519014
Ag     12.250270    -12.492258     -4.222429
Ag     15.038285     -7.757084     -2.838105
Ag     18.045194     -5.177916     -5.529735
Ag     15.229256     -9.872113     -7.256207
Ag     19.332018     -2.588838     -4.775377
Ag     21.839155    -14.759588     -4.197391
Ag     22.076931     -2.201293     -5.844463
Pd     16.629250    -11.286855      0.182956
Pd     22.417988    -12.505064     -6.218264
Ag     15.611308    -16.078126     -5.093834
Ag     20.227600    -14.865849     -0.602176
Ag     12.933653    -12.591793    -10.654628
Ag     15.149813     -3.424100     -0.231285
Pd     15.917494     -7.466999     -0.016424
Ag     24.096598    -16.204237     -3.411370
Ag     25.186021     -3.455772     -2.220572
Ag     17.980464    -17.552264     -4.167867
Ag     17.242776     -4.974475      0.669088
Pd     17.139129     -5.384090     -8.360307
Ag     24.140513     -7.974671     -7.336312
Ag     26.556716     -5.285935     -3.801581
Ag     19.588845    -17.383610     -7.737400
Ag     12.268848     -8.179146     -1.818718
Pd     22.046601    -10.274488     -1.693213
Pd     21.835953    -10.805514    -10.921473
Ag     25.748804     -9.384473     -0.043750
Ag     15.333373    -13.755661     -0.533594
