26

Cl      0.000000      0.000000      0.995000
Cl      0.000000      0.000000     -0.995000
AR      0.488785     -3.512653      0.000008
AR      3.579914      0.249208      3.214287
AR     -2.912757     -2.329044      0.000004
AR      2.954100      2.167524     -0.000004
AR     -2.181441      2.624842      3.197251
AR      2.316493     -3.201177     -3.117181
AR      0.044541     -0.320096      4.321658
AR      0.914461     -6.571767      1.956577
AR     -1.354527     -3.711980      3.117198
AR      0.044545     -0.320120     -4.321657
AR      3.579915      0.249190     -3.214286
AR      3.791273     -5.118514      0.000016
AR     -0.500690      3.598205     -0.000009
AR      1.381954      3.120670     -3.197266
AR     -1.354525     -3.711997     -3.117181
AR      2.316488     -3.201157      3.117198
AR     -3.511950     -0.737624      3.214286
AR      3.437962     -1.445342      0.000005
AR     -2.249820     -5.959131      0.000016
AR     -2.181438      2.624825     -3.197266
AR     -3.511947     -0.737641     -3.214286
AR      0.914462     -6.571780     -1.956540
AR      1.381951      3.120687      3.197251
AR     -3.433638      1.278671     -0.000004
26

AR      1.749780     -3.200272      0.229006
AR     -4.027311      5.550085      1.281993
AR     -1.728146     -1.115786     -4.437874
AR     -1.701008      3.045387     -0.302381
AR      1.458611      0.894289     -3.873973
AR     -1.301710     -3.767934      2.471072
AR     -5.215270      3.372013     -1.677354
AR     -1.936928      2.553278     -3.949444
AR      1.549542      3.272800      1.237171
AR     -1.451414      3.385136      3.321692
AR      1.272212     -2.884689     -3.394134
AR      1.403378      1.422597      4.426826
AR     -4.161830     -2.018886      1.397113
AR      4.018918     -1.301816     -2.033013
AR      0.910108      4.371396     -2.268117
AR     -0.335067      6.370352      0.814095
AR     -4.360586      1.750293      1.862963
AR      3.333370      0.028444      1.480215
AR     -2.460393      6.040478     -2.331742
AR     -3.336301      0.128936     -1.414960
AR      3.851731      2.469959     -1.583716
AR      1.548675     -2.030746      3.789185
Cl      0.323525      0.155100     -0.809280
AR     -1.898705     -0.222409      3.875853
Cl     -0.473134     -0.135382      0.984517
AR     -1.556642     -3.039946     -1.213851
