10

Cl      0.000000      0.000000      0.995000
Cl      0.000000      0.000000     -0.995000
AR      1.987934      3.046113     -0.126329
AR     -0.506127      0.050118      4.367169
AR      1.353294     -3.376254     -0.126177
AR     -0.558024      3.388494      2.623074
AR      2.324162     -2.093021      3.222698
AR     -1.210379     -3.213604      2.623352
AR      2.688869      1.597876      3.222603
AR      3.608000     -0.356530      0.125163
10

AR     -0.109334      2.656353     -3.352779
Cl     -0.688521     -0.267413      0.515079
AR     -1.551181      3.392871      0.114144
AR      3.739991     -2.130974     -0.643620
AR      2.255882     -1.379561      2.574122
AR      1.986873      3.942509     -0.600945
AR      0.938143      2.199420      2.631586
AR      4.278774      1.242603      0.808707
Cl      0.725710      0.283501     -0.564472
AR      3.279418      1.180620     -2.801815
