138

Co    1.528990     1.487850    -1.253510
Co    1.345410     0.079922     2.105330
Co    1.367090     0.747259    -1.913490
Co   -1.019650    -0.705483     1.095510
Co    0.478878     0.364019     0.733567
Co    0.474475    -1.660590    -0.650946
Co   -0.850432     0.036421     1.742050
Co    0.950439     0.751524    -1.041640
Co   -1.300670     0.841384    -0.581472
Co    1.185760     0.002138    -2.540210
Co   -0.525893    -0.601716     2.392930
Co   -0.093097    -2.430620    -0.456821
Co   -1.668680     1.085510     1.280930
Co    0.814653    -2.329110    -0.026244
Co   -0.024911     2.081070     1.438610
Co    1.150600    -0.898620     2.020370
Co   -0.671200    -0.680381    -2.282530
Co   -0.301050    -1.177890    -1.037080
Co   -1.585420     1.723940    -0.242669
Co   -2.171630     1.250190     0.424579
Co    2.037110     0.935629     0.522317
Co    0.820243     1.992050     0.898895
Co    0.528351     0.744816    -0.174707
Co   -0.288973     0.861023     0.364566
Co   -0.621713     1.510440    -0.263912
Co    0.230766     1.223380     1.089890
Co   -0.952386     2.151520    -0.898291
Co   -1.496030    -0.140258    -0.666553
Co   -0.882452     2.369860     0.076729
Co    0.216778    -0.811218    -0.308561
Co    1.566100    -1.433800     1.270650
Co    0.880664    -0.156973     0.001901
Co    0.633515     1.408320    -1.706750
Co    0.113602    -1.206560    -1.933380
Co    1.426470     0.186144     0.720956
Co   -1.494740     1.917190     0.741151
Co    0.415420    -0.262527     2.281940
Co    0.045570    -1.987410     1.503680
Co   -1.546610    -0.528090     0.258679
Co    0.602133     0.725041     2.335620
Co   -0.351859    -1.566280    -0.110642
Co   -0.047195     2.284160    -0.478682
Co   -0.358031     0.645843    -0.595517
Co   -1.661440    -1.412650    -1.207320
Co    0.263196    -0.340652    -2.429770
Co    1.313560    -0.168897    -0.862946
Co   -0.702315    -1.363870     1.759290
Co   -1.597930    -1.442850     1.306800
Co    0.281211     1.611150     0.164647
Co    0.896982    -1.699050    -1.530940
Co   -0.483637     0.307385    -2.229280
Co   -0.438249     0.029752     0.874535
Co    0.025859     2.471130     0.507831
Co    2.260750    -0.355047    -0.893186
Co   -1.799220     0.221806     1.781230
Co   -1.434280    -0.703079     1.961930
Co    0.817716    -0.264358     1.380310
Co    0.856070     2.353140    -0.039946
Co    1.957760     0.532836     1.441600
Co   -0.687886     1.283660    -1.234090
Co    1.230730    -0.796760     0.635459
Co   -2.438730     0.042353    -0.644825
Co   -0.964741     1.738720     1.582930
Co   -0.549967    -0.317846    -0.679027
Co   -1.990350    -0.530850     1.140640
Co   -1.230450     1.060430     0.396544
Co   -2.242240     1.029870    -0.559239
Co   -0.279996     1.286490    -2.112160
Co    1.731620    -0.176827    -1.733520
Co    0.785481     2.132580    -1.023810
Co    0.754999     1.576500     1.813270
Co   -0.181817     1.251280     1.986450
Co   -2.127970    -1.264440     0.465067
Co    1.106940     1.483850    -0.382262
Co   -0.887064     0.309727    -1.327040
Co   -0.824065    -1.531440    -1.760440
Co    1.516660    -1.679010     0.294913
Co    1.787020    -0.457282     1.376760
Co    0.883521    -2.106460     0.951480
Co    0.365419     0.016512    -0.816343
Co    0.459453     0.646260    -2.344430
Co   -2.026620    -0.487648    -1.388150
Co   -2.489640    -0.347736     0.285961
Co   -1.855460     0.502196    -1.324430
Co    1.063550     1.104850     0.540411
Co   -1.635340     1.478540    -1.217720
Co   -1.382460     0.213958     0.915852
Co    1.426250    -1.877260    -0.690353
Co    1.006590     0.712999     1.456890
Co    0.618108    -1.238230     1.287600
Co    0.774332     0.009171    -1.675290
Co   -0.703516     0.883018     1.233390
Co    0.634387    -0.838208    -1.180570
Co    1.592700     1.457260     1.260430
Co    2.425270     0.390918    -0.233058
Co    0.210651    -1.241030     2.164950
Co    0.211058     1.391920    -0.813426
Co    1.921450     0.575090    -1.087890
Co    0.286935    -0.599638     0.650023
Co   -0.114601     2.032260    -1.451010
Co    1.049650    -0.848938    -2.052450
Co    1.813700    -0.340823    -0.024682
Co    1.643030     1.843790     0.338063
Co    2.178120    -0.985496     0.611308
Co   -0.021586    -2.239490     0.531092
Co   -0.116675    -0.604713     1.523980
Co    2.058770     1.309500    -0.412218
Co   -1.711870    -1.799240    -0.284943
Co   -1.897860     0.389100     0.078686
Co    2.108050    -1.205360    -0.371520
Co   -2.324560     0.398751     0.946974
Co    1.599900    -1.040760    -1.228150
Co   -1.116300     0.894776     2.100630
Co   -1.414000    -0.034912    -2.052540
Co   -0.888617    -1.947580    -0.845928
Co   -1.076300    -0.667658    -1.403350
Co   -0.955738     0.203978     0.052733
Co    0.078765     0.376893     1.609200
Co   -0.548297     1.718980     0.709841
Co   -1.176780    -1.438490     0.435878
Co   -0.925643    -2.308530     0.093284
Co   -0.280764    -1.346740     0.866638
Co   -0.042093    -2.040620    -1.386900
Co   -1.219220     0.943660    -1.967660
Co   -0.854561    -2.087860     1.076590
Co    2.753150    -0.525694    -0.051071
Co    0.552370    -1.465250     0.318247
Co   -0.149152    -0.332102    -1.555930
Co    0.733573    -2.515930    -0.995443
Co    2.374720     0.001269     0.697141
Co   -0.037560     0.024402     0.028805
Co   -0.329322     0.385717     2.478680
Co   -2.105750    -0.891367    -0.469496
Co    1.476920     0.574271    -0.205576
Co   -0.599471    -0.698596     0.229256
Co    0.046328     0.650918    -1.470820
Co    1.161500    -1.015690    -0.343462
Co   -1.133040    -1.059800    -0.486869
138

Co     0.992220    -0.120109    -1.373100
Co    -1.302681     0.674542     0.623638
Co    -0.368932    -1.490479    -0.708363
Co    -1.426638    -2.048169    -0.368751
Co    -0.630101     0.401495    -0.451331
Co    -2.430421    -0.699006     0.306109
Co     2.024166    -0.781990    -1.055561
Co    -0.380596    -1.497483     0.918182
Co     1.024889    -1.326836     0.060131
Co    -0.224799    -0.861654     0.454311
Co    -1.133755     2.398651     0.934611
Co     1.025022     0.789499    -0.954655
Co    -1.275992     0.742359    -1.964238
Co    -0.865006    -0.029765     0.322076
Co    -0.495084    -1.408046     1.877729
Co     1.261265     1.309917     1.672678
Co     1.421031     1.930172     0.216883
Co     0.394877    -1.074840    -2.248055
Co     1.234730    -1.679174     1.446416
Co     2.247910    -0.705286     0.572050
Co     0.765181     0.028007    -0.361260
Co     0.233084     0.637142    -1.407956
Co     0.436148    -1.180257     0.884963
Co     0.131256    -0.221493    -1.928908
Co     1.508713     0.681427    -0.015057
Co     0.831445     1.962232     1.002140
Co     0.520501    -0.226022     2.473095
Co     1.312007    -0.874812    -1.751555
Co    -1.292636    -1.651304     1.438891
Co    -0.936722    -1.973800    -1.161019
Co    -0.608081     0.305840    -1.532692
Co    -1.872745     0.002616     1.733944
Co     1.715197     1.460753    -0.498472
Co    -1.274888    -0.310829    -0.977775
Co    -1.337977     0.686874    -0.984112
Co    -1.144380    -1.276707    -1.856406
Co    -0.072513    -0.126329    -0.067776
Co     1.409484    -0.792422     1.895729
Co    -1.034670    -0.872550     0.891760
Co     0.240604    -1.984433     1.412015
Co     0.810279     1.303921    -0.155792
Co     1.593947    -0.498533     0.183134
Co    -1.385830    -0.314313    -1.987255
Co     1.396887     1.540382    -1.352833
Co    -1.167134    -1.154144    -0.812223
Co    -0.306057    -0.769726     1.423177
Co    -2.206548    -0.332307    -0.589183
Co     0.838190    -1.873977    -1.725287
Co    -0.543752    -0.816090    -2.364293
Co    -1.446633    -0.594030    -0.047051
Co    -1.986386     0.054223    -1.543120
Co    -0.687625     0.160584    -2.483164
Co    -0.553534     2.333278     0.113469
Co    -1.206791     1.539985    -1.636348
Co    -1.116933     1.187846    -0.135408
Co    -0.020647    -2.408482     0.642669
Co     0.369116    -1.060009    -1.282277
Co    -0.503036     0.806335     1.217229
Co     1.267425     1.124864     0.704337
Co     0.413271     1.531077    -0.963600
Co     0.948053    -0.278366    -2.381190
Co     1.710531    -0.112285    -1.791220
Co     1.814157    -1.572570     0.677803
Co     1.797518     1.847208     1.166470
Co    -0.959247     0.070710     1.346839
Co     0.765084    -1.982488     0.572977
Co     0.516055     0.692888     1.308245
Co     1.184898     0.758340    -1.961914
Co     0.119133     1.539563     1.644565
Co     0.103568    -0.072606    -0.942793
Co     2.240727     0.274378     0.448189
Co    -0.902108     0.228806     2.308692
Co     0.757373    -1.645676    -0.585187
Co    -0.370680     0.783302     0.206537
Co     1.975634    -0.155567     1.441007
Co     1.342459    -2.033695    -0.233615
Co    -0.845176     2.093068    -0.747395
Co     1.637211     0.072823    -0.850654
Co    -0.242497     0.214985     2.797902
Co    -0.392185     0.962476    -1.935144
Co     1.650872    -1.724020    -0.986599
Co     0.974963     2.103195    -0.546180
Co     2.084833     1.299359     0.484255
Co    -0.812287     1.675654     1.561932
Co     0.490735     1.469985    -2.067170
Co    -0.559552    -0.617977    -0.441887
Co     0.304264     0.785381    -0.537708
Co     1.282775    -0.779668    -0.717618
Co     0.143209    -1.658227     0.195858
Co     1.338585     0.199158     0.852424
Co    -0.247822    -1.523784    -1.684999
Co    -2.168603    -1.239582    -0.517988
Co    -0.474068    -0.759953    -1.293941
Co     0.336185     0.631148    -2.482973
Co    -0.149915     1.501981    -0.193038
Co    -0.460108    -2.217027    -0.235635
Co    -1.243001     0.881470     1.726208
Co    -1.582164     0.426864    -0.243624
Co     0.729316    -0.335504     0.438907
Co    -0.379530    -0.649240     2.363109
Co    -0.142946     0.054489     0.847104
Co     0.046026     2.317940    -0.777120
Co    -0.215131     1.928180    -1.551206
Co     0.383662    -2.476394    -0.196810
Co     0.646244     0.536150     0.448469
Co     1.988287     0.726823    -1.265634
Co    -1.653179    -0.035259     0.678776
Co    -2.493329     0.307399     0.239356
Co     0.350572    -0.876408    -0.405649
Co     1.908479     0.866406     1.372631
Co    -1.360754     2.047243     0.110655
Co    -0.468363     1.059384    -1.108273
Co    -0.784963     1.574651     0.552378
Co     0.009588    -2.223751    -1.174622
Co    -0.484932     1.074677     2.217593
Co     0.713200    -0.279958     1.480629
Co    -1.641846     1.694514     0.913549
Co     1.399204    -0.868856     1.023201
Co     0.361475     1.313482     0.720008
Co     0.559708     0.788256     2.360577
Co    -1.798763    -1.440836     0.405359
Co    -1.677957     1.679446    -0.675610
Co    -1.095771    -2.290151     0.628666
Co    -2.100033     0.782300     0.999727
Co    -2.245471     0.796600    -0.611385
Co     2.361434     0.589309    -0.392589
Co     1.940724    -1.252818    -0.172499
Co    -1.915625    -0.889880     1.315750
Co    -1.982055    -0.881058    -1.312079
Co    -0.126671     2.318566     0.931404
Co    -1.192560    -0.845379     1.766466
Co    -0.125844     0.088801     1.810268
Co     2.450956    -0.335215    -0.289167
Co     0.325452    -1.075480     1.894866
Co     1.296846     0.319309     1.959447
Co    -2.065539     1.271265     0.082402
Co    -0.927375    -1.414462     0.115936
Co     0.580843     2.155946     0.163279
