310

Li   -0.000131     0.000260     0.000353
Li   -0.000079     0.000095     1.026190
Li    0.283425    -0.872634     0.459095
Li   -0.742586    -0.539201     0.459083
Li   -0.742514     0.539579     0.458986
Li    0.283580     0.872902     0.458987
Li    0.917613     0.000108     0.459085
Li   -0.283957    -0.872407    -0.458155
Li   -0.917810     0.000233    -0.458622
Li   -0.283631     0.872983    -0.458639
Li    0.742375     0.539538    -0.458620
Li    0.742359    -0.539012    -0.458154
Li   -0.000237     0.000589    -1.025480
Li   -0.000054     0.000012     2.075278
Li    0.289982    -0.892826     1.519098
Li   -0.759599    -0.551737     1.519090
Li   -0.759547     0.551892     1.519055
Li    0.290122     0.892874     1.519057
Li    0.938743    -0.000037     1.519093
Li    1.228798    -0.892850     0.938878
Li    0.573395    -1.765274     0.928134
Li   -0.469593    -1.444567     0.938876
Li   -1.501791    -1.090907     0.928092
Li   -1.519110     0.000154     0.938841
Li   -1.501666     1.091146     0.928080
Li   -0.469371     1.444753     0.938820
Li    0.573660     1.765308     0.928083
Li    1.228926     0.892844     0.938845
Li    1.856107    -0.000106     0.928097
Li    1.049531    -1.444557     0.000410
Li   -0.000320    -1.785598     0.000409
Li   -1.049886    -1.444527     0.000238
Li   -1.698402    -0.551663     0.000092
Li   -1.698354     0.551981     0.000054
Li   -1.049611     1.444784     0.000034
Li    0.000082     1.785773     0.000036
Li    1.049657     1.444663     0.000058
Li    1.698284     0.551739     0.000097
Li    1.698289    -0.551792     0.000242
Li    0.469050    -1.444054    -0.937236
Li   -0.573811    -1.764847    -0.927580
Li   -1.229236    -0.892617    -0.938455
Li   -1.856190     0.000163    -0.928015
Li   -1.228890     0.893007    -0.938741
Li   -0.573516     1.765358    -0.928080
Li    0.469406     1.444692    -0.938738
Li    1.501656     1.090947    -0.928010
Li    1.519057     0.000156    -0.938451
Li    1.501347    -1.090739    -0.927577
Li   -0.290901    -0.891842    -1.517822
Li   -0.939009     0.000398    -1.518790
Li   -0.290165     0.893101    -1.518893
Li    0.759433     0.552131    -1.518788
Li    0.759402    -0.550655    -1.517820
Li   -0.000143     0.000306    -2.074682
Li   -0.000038    -0.000042     3.145676
Li    0.293118    -0.902483     2.589230
Li   -0.767729    -0.557730     2.589230
Li   -0.767675     0.557754     2.589226
Li    0.293250     0.902392     2.589228
Li    0.948840    -0.000108     2.589233
Li    1.249983    -0.908354     2.022614
Li    0.584360    -1.799034     2.006572
Li   -0.477626    -1.469561     2.022612
Li   -1.530400    -1.111791     2.006568
Li   -1.545246     0.000068     2.022630
Li   -1.530294     1.111905     2.006602
Li   -0.477438     1.469582     2.022633
Li    0.584621     1.798928     2.006605
Li    1.250120     0.908133     2.022634
Li    1.891524    -0.000191     2.006573
Li    2.184699    -0.902633     1.420061
Li    1.533258    -1.799082     1.420061
Li    0.869238    -2.675993     1.406684
Li   -0.183358    -2.356719     1.420059
Li   -1.237259    -2.014245     1.420056
Li   -2.276378    -1.653754     1.406639
Li   -2.298036    -0.553995     1.420111
Li   -2.297992     0.554223     1.420143
Li   -2.276218     1.653924     1.406725
Li   -1.237006     2.014339     1.420146
Li   -0.183016     2.356724     1.420147
Li    0.869612     2.675836     1.406730
Li    1.533501     1.798870     1.420148
Li    2.184811     0.902243     1.420117
Li    2.813592    -0.000295     1.406646
Li    2.022564    -1.469692     0.477409
Li    1.351977    -2.356836     0.471435
Li    0.291097    -2.701458     0.471434
Li   -0.772826    -2.377764     0.477405
Li   -1.823668    -2.014230     0.471211
Li   -2.479230    -1.111777     0.471218
Li   -2.500195     0.000121     0.477413
Li   -2.479156     1.111966     0.471274
Li   -1.823455     2.014355     0.471261
Li   -0.772480     2.377838     0.477413
Li    0.291469     2.701381     0.471264
Li    1.352308     2.356604     0.471279
Li    2.022738     1.469380     0.477420
Li    2.659213     0.557428     0.471225
Li    2.659153    -0.558001     0.471218
Li    1.823120    -2.014405    -0.471244
Li    0.772391    -2.377854    -0.476478
Li   -0.291339    -2.701279    -0.471247
Li   -1.352108    -2.356536    -0.471609
Li   -2.022768    -1.469504    -0.477523
Li   -2.659195    -0.557673    -0.471426
Li   -2.659176     0.557854    -0.471418
Li   -2.022606     1.469645    -0.477571
Li   -1.352061     2.356732    -0.471454
Li   -0.291137     2.701370    -0.471453
Li    0.772718     2.377696    -0.477567
Li    1.823604     2.014069    -0.471412
Li    2.479190     1.111513    -0.471418
Li    2.500124    -0.000259    -0.477517
Li    2.478785    -1.112084    -0.471603
Li    1.236266    -2.014312    -1.417883
Li    0.183430    -2.356322    -1.417884
Li   -0.868685    -2.675260    -1.407528
Li   -1.533532    -1.798651    -1.420255
Li   -2.184957    -0.902255    -1.420217
Li   -2.813583     0.000097    -1.406910
Li   -2.184644     0.902499    -1.420334
Li   -1.533245     1.798979    -1.420366
Li   -0.869279     2.675831    -1.406985
Li    0.183240     2.356573    -1.420364
Li    1.237125     2.014049    -1.420329
Li    2.276318     1.653533    -1.406903
Li    2.297992     0.554015    -1.420210
Li    2.297719    -0.554082    -1.420250
Li    2.274959    -1.654058    -1.407524
Li    0.476572    -1.467202    -2.019368
Li   -0.586055    -1.797182    -2.005754
Li   -1.250909    -0.907641    -2.022234
Li   -1.891681     0.000140    -2.006648
Li   -1.249996     0.908285    -2.022754
Li   -0.584413     1.798908    -2.006795
Li    0.477506     1.469458    -2.022752
Li    1.530388     1.111787    -2.006643
Li    1.545425     0.000738    -2.022230
Li    1.530259    -1.109705    -2.005751
Li   -0.295003    -0.901628    -2.587739
Li   -0.948999    -0.000069    -2.589082
Li   -0.293076     0.902064    -2.589243
Li    0.767793     0.557625    -2.589079
Li    0.768475    -0.556161    -2.587737
Li    0.000361    -0.001242    -3.145266
Li   -0.957114     2.946207     1.914420
Li    2.313769    -1.682717    -2.503246
Li   -2.315141     1.682184     2.502157
Li    3.074613     2.233288    -1.900401
Li    3.800328    -0.000438     1.899896
Li    3.463448     1.124834    -0.000272
Li   -3.074658    -2.233753     1.899886
Li    0.296040    -0.911483     3.678560
Li    1.174106    -3.614495     1.899839
Li   -0.000029    -0.000073     4.248838
Li   -0.584722    -1.823632    -3.098593
Li   -3.463356     1.125457    -0.000167
Li   -2.140354     2.946215    -0.000187
Li   -3.273410     1.682227     0.951579
Li    0.480015    -1.477796    -3.107336
Li   -1.174100     3.614188    -1.900457
Li    2.140692     2.945912    -0.000159
Li    0.296166     0.911310     3.678581
Li    2.506287     1.820581     1.914382
Li    3.089127    -1.119363    -1.910826
Li    0.000477    -0.001595    -4.248515
Li    0.775529    -0.564968    -3.678427
Li    1.659804     3.284764     0.951587
Li   -1.841651    -2.721109    -1.910833
Li    0.775580     0.561756    -3.678325
Li    1.264099     0.918236     3.114233
Li    2.315270     1.681513    -2.502496
Li   -3.636873    -0.563256    -0.951973
Li    2.611452     2.593114    -0.951910
Li    3.301584     0.561477    -0.961301
Li    2.019153     2.593021    -1.910261
Li   -2.505483    -1.820644    -1.915311
Li    3.637005     0.562815     0.951455
Li   -2.019212    -2.593481     1.909711
Li   -0.482762     1.485964     3.114240
Li    2.861723    -0.000328     2.502064
Li   -3.074461     2.233937     1.900040
Li   -1.263837     0.917835    -3.114534
Li    3.272325    -1.682553    -0.952586
Li   -1.548993    -1.125344     3.097650
Li    3.097047    -0.000682    -1.915303
Li    1.914530    -0.000231     3.097655
Li   -2.018945     2.593565     1.909887
Li    3.090380     1.118286    -1.910330
Li   -1.914078    -0.000913    -3.097881
Li   -2.315304    -1.682067     2.502056
Li    1.842793     2.721498     1.909883
Li    0.956051    -2.943221    -1.921477
Li    0.588431     3.632969     0.951578
Li    2.506021    -1.821132     1.914194
Li    3.463024    -1.125831    -0.000538
Li   -0.587947     3.632938    -0.951954
Li    3.636904    -0.563721     0.951392
Li    1.559393    -1.827970     2.523148
Li    1.842409    -2.721872     1.909649
Li    0.957431     2.945809    -1.914813
Li   -3.097829     0.000104     1.914374
Li   -0.957459    -2.946231     1.914189
Li   -0.775341    -0.563301     3.678567
Li    0.187534     2.395023    -2.523643
Li   -0.108828     3.284692    -1.910279
Li    0.884495     2.721574     2.502162
Li   -3.157628     0.911362    -1.910269
Li   -1.562497     0.000027     3.114229
Li   -2.505920     1.820752    -1.914818
Li    2.017679    -2.593774    -1.911186
Li    3.001302    -1.486366     0.960564
Li    0.588023    -3.633159     0.951297
Li   -3.463383    -1.125323    -0.000282
Li   -2.220003     0.918148    -2.523675
Li   -2.340584    -2.395273    -0.961478
Li   -1.173431    -3.613663    -1.901177
Li   -3.273524    -1.682046     0.951445
Li    1.559645     1.827617     2.523263
Li   -0.485876    -3.313850     0.960452
Li    1.076910     3.313589    -0.004895
Li    2.609963    -2.593731    -0.952693
Li    2.220293     0.918148     2.523231
Li   -2.818860    -2.048008    -0.005065
Li   -3.301660     0.562151     0.960760
Li   -0.108269    -3.284381    -1.911189
Li   -3.800188     0.000033    -1.900411
Li   -2.611402    -2.593461     0.951383
Li    2.818390    -2.048481     0.004197
Li   -1.256543    -2.048049     2.523153
Li   -2.818731     2.048103    -0.004901
Li   -3.001312     1.486027    -0.961130
Li   -0.591340     1.820237    -3.097982
Li   -0.295689     0.910113    -3.678470
Li   -0.295532    -0.912899    -3.678428
Li   -1.554643     2.966451     0.960776
Li   -1.554920    -2.966439     0.960557
Li   -0.482950    -1.486040     3.114192
Li   -1.076502     3.313736     0.004553
Li   -1.548875     1.125384     3.097701
Li    0.958270    -0.000144     3.678570
Li    1.553433    -2.966469    -0.962835
Li    0.486372    -3.313100    -0.962836
Li    0.109247     3.284901     1.909890
Li    0.591731     1.820752     3.097704
Li   -3.001344    -1.486007    -0.961310
Li   -3.484241     0.000074     0.004532
Li    0.108811    -3.285025     1.909646
Li    1.076462    -3.313901    -0.005378
Li   -0.884086     2.721418    -2.502545
Li    3.157914     0.911040     1.909802
Li    1.544727    -1.131888    -3.098590
Li   -1.659375     3.284889    -0.951955
Li    0.591479    -1.820954     3.097637
Li    2.818953     2.047644     0.004541
Li   -3.090449     1.118952     1.909876
Li    0.183273    -2.390858    -2.513973
Li   -3.157682    -0.911375    -1.910339
Li    1.256539     2.047490    -2.523670
Li    1.549130     1.124098    -3.097876
Li   -0.957725    -0.001302    -3.678327
Li    2.340510    -2.395709     0.960456
Li   -3.090540    -1.118748     1.909793
Li   -1.256307     2.048054     2.523268
Li   -0.775277     0.563255     3.678579
Li   -1.842369     2.721558    -1.910282
Li   -1.262782    -0.920090    -3.114361
Li    2.335892     0.561312    -2.523725
Li   -1.076583    -3.313749     0.004192
Li   -0.187530    -2.395452     2.523145
Li    3.301322    -0.562520    -0.961469
Li    3.073007    -2.234222    -1.901170
Li   -3.301690    -0.561960     0.960706
Li   -2.140373    -2.946075    -0.000546
Li    1.554958     2.966115    -0.961123
Li    0.485958     3.313553    -0.961138
Li    0.884121    -2.721813     2.502049
Li    3.001545     1.485623     0.960715
Li   -2.861540    -0.000156    -2.502504
Li    0.483096     1.485320    -3.114532
Li    1.659275    -3.285167     0.951298
Li   -0.587511    -3.632419    -0.952698
Li    3.273506     1.681556    -0.951963
Li   -0.883241    -2.721255    -2.503250
Li   -2.336094    -0.561978     2.523224
Li    3.484210    -0.000478    -0.005056
Li    2.220164    -0.918653     2.523158
Li    1.263973    -0.918558     3.114194
Li    3.157776    -0.911755     1.909719
Li   -0.485552     3.313742     0.960778
Li   -2.336043     0.562117     2.523257
Li    1.562351    -0.002356    -3.114357
Li   -1.658904    -3.284445    -0.952594
Li    0.000239     3.641579    -0.000184
Li    2.334428    -0.563379    -2.524507
Li    1.174605     3.614231     1.900047
Li   -2.219907    -0.918623    -2.523731
Li    0.000337    -3.641477    -0.000920
Li   -3.636911     0.563356    -0.951919
Li   -2.340570     2.395365    -0.961142
Li   -1.557766    -1.827745    -2.524513
Li   -2.611200     2.593580     0.951574
Li    2.340905     2.395118     0.960768
Li    1.256692    -2.042162    -2.513972
Li    2.139659    -2.946526    -0.000916
Li   -0.187216     2.395345     2.523270
Li   -1.559314     1.827565    -2.523646
Li    0.806345    -2.482362    -3.416568
310

Li    -2.715252    -1.311690     2.362843
Li    -0.553734    -2.922722    -2.330624
Li     0.258223    -1.726619     0.086583
Li     0.187359     2.015936     2.482373
Li    -2.084913     1.547714     0.758173
Li    -2.512560     0.494715     0.426502
Li    -1.551471    -3.872903     0.697430
Li    -2.172616     0.544398     1.510944
Li    -2.419106     1.370177    -0.211039
Li     1.670540    -1.976497     0.805952
Li     2.942353     0.606761     0.993268
Li    -3.207572    -0.378397     1.939357
Li     2.652497    -0.350929     0.690348
Li    -2.057628     3.115152     1.110086
Li     0.363942    -2.763307    -2.523923
Li    -1.396046     1.169939     3.268761
Li    -0.099752    -0.410804     3.437334
Li    -2.535911     0.490024    -2.618681
Li     3.001628    -0.920934     1.568119
Li     1.687620     0.233211    -0.434350
Li     1.400725    -1.517086    -0.189600
Li    -1.557290    -1.952825     1.080316
Li     0.068264     0.630808     0.787377
Li     1.939027    -1.223004     3.194423
Li    -1.398618     2.965764    -1.013306
Li    -0.696238     0.266804    -2.685427
Li     0.364189     0.575900    -1.549074
Li     0.463505    -0.215076    -2.534142
Li     2.611541     1.137604    -2.343634
Li     0.973964    -3.354744    -0.823955
Li    -0.889954     2.740053    -1.913782
Li     0.396469     0.994029    -0.130686
Li     1.407914    -1.090286    -3.105920
Li     2.332713    -1.422319     2.073274
Li     1.418344     1.984776    -1.128795
Li    -0.550438    -0.949657    -2.532760
Li    -0.881830    -1.055902     3.424027
Li    -2.443725    -0.708598    -2.537763
Li    -2.794025     1.944219    -1.138003
Li    -0.138683    -2.713156     0.250427
Li     0.728258     2.907532     2.262063
Li     2.133895     0.257473    -2.116485
Li     3.673931    -0.165693     0.887037
Li    -2.421503    -2.180923     0.768125
Li    -1.587969     2.116241    -0.710746
Li    -3.539771     0.326642     0.084763
Li    -3.697369    -0.808706    -0.315545
Li    -3.196243    -1.592496     0.282898
Li    -2.207387    -1.658415    -2.378011
Li     0.586208     2.052029    -2.860457
Li     1.003296    -0.698677     3.646837
Li    -2.202026     0.507609     3.171099
Li    -2.971783    -0.298688     3.074229
Li    -0.324614    -2.619800    -3.431162
Li    -1.161866    -0.540929     2.423787
Li    -1.245177    -2.418456     2.054276
Li    -2.495807    -0.452273     1.116881
Li     1.152028     2.082915     2.783710
Li    -0.102952    -0.684836    -0.716271
Li    -1.111799     2.608003    -0.104866
Li    -1.677499     0.640673    -0.373004
Li    -0.627640     2.248424    -0.993429
Li    -0.207020    -3.347092    -0.571568
Li    -1.231201     1.705186    -1.864174
Li     3.941538     0.921691     1.338849
Li     2.140091    -1.214184    -2.503524
Li     2.107828    -0.681567    -1.605039
Li    -0.146947    -0.972864     2.518051
Li    -3.864335    -0.919565    -1.404638
Li    -1.354679     0.158312    -1.306933
Li     1.122023    -0.036655    -3.248083
Li     2.554323    -0.429615     2.486064
Li    -1.367621    -1.831950    -1.078900
Li     0.962894    -1.320150     0.897008
Li    -2.858975    -1.328348     1.306742
Li    -0.111090     3.192583     1.474521
Li    -2.958226    -0.579327    -0.973093
Li    -1.161075     2.967588     1.783953
Li     3.067769     1.218641     1.880478
Li    -1.894998    -2.858150    -0.793479
Li    -2.177991    -0.231961     2.294036
Li    -1.806650     1.147440    -3.128085
Li     0.593307    -3.489788     0.273683
Li     2.017769     1.146874     1.416795
Li    -3.110021    -1.372243    -1.813723
Li     3.344680     0.083096     2.025128
Li     3.232036    -1.360222    -0.534276
Li     0.156642    -3.179248     1.355603
Li    -1.806083    -0.342573     0.409325
Li    -1.157404     1.722124    -3.750839
Li    -3.588166     0.175378    -0.888334
Li     0.571552    -2.239295     2.985537
Li     0.987318    -2.717004     1.936240
Li    -0.251152    -2.864695     2.331280
Li    -1.365686     1.606205     0.091721
Li    -1.744645    -2.224285     0.143716
Li     1.017993     2.914257    -0.503601
Li    -2.698791    -0.556727     0.009951
Li     3.407695     1.680504     0.788507
Li     0.078393     2.719276    -0.360628
Li     0.771389     3.458717    -1.525366
Li    -2.418313     2.298142     2.687635
Li    -3.072549     0.521550     2.327982
Li     1.114463    -2.571859     0.034154
Li    -0.406909     1.809031     3.300005
Li    -0.777046    -3.478420     1.501356
Li    -1.543007    -2.607890    -1.934462
Li     1.154283     1.471772     2.091854
Li    -1.164278    -2.811319     0.585465
Li     0.728634    -0.850754    -0.141694
Li     3.082553     1.503390    -0.187265
Li     1.265851     3.516682     0.273347
Li     2.780130    -2.220894    -0.953255
Li    -0.450481    -2.474457     1.244127
Li     1.472453     1.012226     2.958842
Li    -2.726511    -2.467695    -0.278686
Li    -3.387347    -1.641970    -0.827846
Li     0.023712     0.256331    -3.452017
Li    -1.796227    -3.016440     1.428830
Li     2.502478     0.284178    -1.228707
Li     1.010080     0.191775     0.395637
Li     1.123052    -1.875712     3.590706
Li    -0.832837    -1.519618     1.963995
Li     0.193340     3.352376     0.479016
Li     0.123063     2.912312    -2.283504
Li     1.907634    -1.076973     1.119810
Li    -0.739838    -2.652467    -0.459517
Li    -0.644254     0.575117     1.655218
Li     1.505230    -2.134570     2.622616
Li    -0.859468    -0.272744    -0.250152
Li    -1.151350    -1.058507     0.920097
Li    -1.038957     3.267554     0.818095
Li    -1.103119    -0.846446    -1.071906
Li    -2.337518    -2.094642     1.960375
Li    -1.224038    -1.572801    -2.082372
Li     0.551620    -1.155719    -2.365565
Li    -0.327670     0.123312     2.469454
Li     1.289263     0.642889    -2.498911
Li     0.776601     1.869132    -0.323919
Li     0.414083     0.788015     2.578646
Li     2.431791     0.614859     2.481461
Li     2.712221    -1.909953     1.089624
Li     0.832279    -1.334545     2.811679
Li     0.556644     1.545822     3.442162
Li     0.775722     0.066885    -0.756436
Li     0.092860     1.309948     1.642400
Li    -1.126872     0.126227     3.266287
Li    -1.442711    -1.146286    -3.021352
Li    -0.446989    -3.769407     0.482179
Li     1.229197    -1.691767     1.769971
Li     2.699391     0.544343    -0.015692
Li    -0.804479    -0.486850    -3.519572
Li    -1.920726     0.966526    -1.209425
Li    -1.859895    -1.100921     1.627760
Li    -2.372231    -2.072350    -1.358759
Li    -3.301543     1.282265    -0.522052
Li     2.445750    -1.385580     0.154361
Li     0.188018    -1.834359     1.930521
Li     1.674646     1.675476    -2.725484
Li    -2.860814     2.315078     0.972577
Li     0.526357     1.638502     0.619794
Li     0.597550    -2.105630    -1.786232
Li    -0.431112     2.833984     2.512770
Li     0.126231     1.384460    -1.096878
Li     1.438183     0.440002     2.132099
Li     1.491192    -0.753500     2.123757
Li    -2.096287    -1.194883     0.534151
Li     2.144881     1.314249    -0.638953
Li     0.936754     1.512501    -1.900634
Li    -0.963068    -3.255121    -1.294854
Li     2.017146    -2.102285    -1.642910
Li    -0.467459    -0.558071     1.588836
Li    -0.268968     1.897150    -1.977899
Li     1.876603     3.039183    -1.398128
Li    -0.157100     1.390953    -3.426369
Li     0.561039    -1.337925    -0.888719
Li     3.427733    -1.101818     0.516603
Li     2.996213     0.283155    -2.925697
Li     0.197845    -3.018087    -1.573412
Li    -3.262112     1.273801     0.581710
Li    -3.054447     0.811764    -1.510805
Li    -1.381750    -0.490269    -2.138643
Li     0.087648     0.016068     0.058811
Li    -0.867872     1.333662    -2.658369
Li    -3.270633     0.370679     1.170968
Li    -1.951572     2.519502    -1.666775
Li    -0.341812    -0.163240    -1.668453
Li     1.115306     0.922417     1.179498
Li     2.228567     2.152747    -1.953702
Li     1.785003    -3.418114    -0.060690
Li    -0.912835     0.725433    -3.611493
Li    -0.490435    -1.430268    -3.497936
Li     0.672408    -0.202760     2.636121
Li    -1.303050    -2.080891    -2.806381
Li     0.497987    -1.976877    -3.324734
Li    -0.597681     1.193800     2.497989
Li    -3.553771    -0.496042     0.742711
Li     1.486275    -0.669896    -0.722112
Li     3.262272     0.530685    -1.925848
Li     1.261268    -3.012524     1.110907
Li    -0.692700     0.745968     0.124072
Li    -0.469737    -1.930616     2.898711
Li    -1.149755    -3.558357    -0.170481
Li     2.961369     1.350489    -1.277208
Li    -1.679045    -1.686453     2.666085
Li    -1.016695     1.215221    -0.912093
Li    -2.256363    -1.367836    -0.557885
Li     0.009388    -1.381021     3.433568
Li     3.231279    -0.480601    -1.147778
Li     1.510375     3.847358    -0.696993
Li     1.645499     2.223362     0.031693
Li     2.108237     1.681243     2.359805
Li     1.123943     1.029578    -0.881246
Li    -0.236394     3.255560    -1.267197
Li     1.872156     2.840277     0.719364
Li     1.900844    -2.416197     1.839104
Li    -2.830376     3.214847     0.313031
Li    -2.043265     2.363873     0.164945
Li     0.775659     0.492998     3.478570
Li    -0.548082     2.082588     1.693907
Li     1.492047     2.589416     1.916686
Li    -0.204243    -1.343943    -1.624801
Li     1.273682     2.456305    -2.103896
Li    -1.268473     1.993274     2.444388
Li    -2.026177    -0.682252     3.147810
Li     2.241949    -0.036829     1.561457
Li     0.445236     3.769413    -0.605430
Li     2.469023     2.181394    -0.858203
Li    -0.328681    -1.038877     0.191188
Li    -3.320898    -0.107160    -1.892206
Li     1.998703     0.352617     0.589959
Li     1.295902    -3.013527    -1.765161
Li     0.400222     0.209571     1.647152
Li     1.829467     1.210270    -1.659816
Li     1.682807     0.002614     3.047887
Li    -1.693416     3.440011    -0.035753
Li     0.343415    -0.768437    -3.287821
Li     0.213400     0.903343    -2.579132
Li     3.180987    -2.102403     0.119591
Li     0.608205     2.188230     1.448363
Li     2.352569     1.437968     0.513447
Li     0.474824     2.470559    -1.235336
Li     3.551781    -0.224620    -0.060394
Li    -0.585891     1.371583     0.861970
Li     1.412057    -0.523677    -2.261281
Li     0.415645     2.619326     3.436122
Li    -0.347380     0.395225    -0.936249
Li    -1.561440     0.649944    -2.122905
Li    -1.348418     0.760221     0.797855
Li    -1.375233     1.310925     1.716306
Li    -1.477030    -0.174815     1.497777
Li     1.400411    -2.151544    -0.891902
Li     0.754569     2.601918     0.524550
Li    -0.509896    -1.649320    -0.727759
Li    -2.985827     1.528929     1.693979
Li     1.643854    -0.518247     0.218119
Li    -3.058090     2.215192    -0.218027
Li     2.117503    -3.126693    -1.055629
Li    -0.154480    -1.827410    -2.379496
Li     1.394308     1.079162     0.219472
Li    -2.060289    -3.119255     0.251293
Li    -2.343936     2.894652    -0.797758
Li     3.425331     0.607257    -0.762614
Li     2.355098    -0.427195    -0.474697
Li     1.238265    -2.036479    -2.457569
Li    -0.597707    -2.200425    -1.398742
Li     2.037870     3.240096    -0.316132
Li    -0.714472     0.008426     0.685721
Li     2.998162    -0.653466    -2.245468
Li    -2.195684     1.224627     2.408296
Li    -1.298781    -1.184640    -0.100854
Li     1.567197     0.104796    -1.460865
Li     0.614933    -0.792647     1.850996
Li     2.495634    -2.879529     0.675464
Li     0.311374    -2.494132    -0.734766
Li    -1.621574    -0.003145    -3.133729
Li    -0.564982     2.255904    -3.038379
Li     0.539989    -2.272430     1.137880
Li    -2.313397     0.081124    -1.612416
Li     2.260614    -0.465115    -3.071094
Li     3.697570     0.711126     0.179969
Li     0.825162     3.217547     1.303666
Li     2.834748    -3.169577    -0.281009
Li    -2.142765    -1.027417    -1.447428
Li     0.896672     1.080237    -3.351788
Li     2.958425    -1.397068    -1.641240
Li     1.997254     0.724558    -3.138011
Li     1.278232    -0.301406     1.221672
Li     0.368758    -0.523946     0.859082
Li    -1.485299     2.224484    -2.757616
Li     0.728309    -0.512338    -1.538330
Li     1.422971     1.747722     1.028431
Li    -0.393510     0.807716     3.457015
Li     2.744757     2.474175     0.204330
Li    -0.198869     2.479255     0.605305
Li    -0.722135     3.493853    -0.335584
Li    -1.854464    -0.414488    -0.661582
Li    -0.013879    -1.363090     1.151596
Li    -2.672753     0.290459    -0.556880
Li     2.496345     2.038087     1.356586
Li     1.356566    -1.365281    -1.743354
Li    -2.338263     1.513190    -2.121675
Li    -0.719882    -1.955903     0.448033
Li    -1.386367     2.212610     0.857697
Li    -0.282303     1.799859    -0.051964
Li    -0.551553     0.915402    -1.726720
Li     2.076225    -1.511037    -0.842977
Li    -2.131120     2.104510     1.621828
Li     2.162139    -2.377790    -0.110698
Li    -1.471406     0.484187     2.293814
