11

Ne    0.249652    -0.269726    -2.666926
Ne   -2.174819     0.821286    -1.288494
Ne    0.603640     1.287164    -0.481778
Ne    2.622752     1.576378    -2.260416
Ne   -0.147454     2.768518    -2.825034
Ne    1.359606     2.316697     1.986025
Ne   -1.062380     0.432581     1.571411
Ne   -0.479536     2.599028    -0.115945
Ne   -1.844603     4.255625     0.330076
Ne    1.837330     3.942709    -0.601515
Ne    2.013720    -0.561333    -0.318992
11

Ne     0.488308    -2.513510     0.075875
Ne     2.143774    -3.027865     2.423229
Ne    -1.841653    -1.730123    -0.486023
Ne    -1.167794    -3.093424     2.307517
Ne     3.089315    -1.412905    -0.120377
Ne     0.579798    -1.107811     1.051835
Ne     0.556667    -0.574628    -1.686861
Ne     0.765950     1.205781     1.468319
Ne     0.667078    -4.456169    -0.810260
Ne    -1.844382    -0.063262     1.931414
Ne     0.452019    -0.796614     3.591282
