22

Ne    0.612466     4.010199     2.224770
Ne    2.446731    -0.912869     0.942598
Ne    1.086837    -1.912922    -1.716926
Ne    0.013476     0.028304    -0.032598
Ne   -1.715230    -2.135541    -0.465410
Ne    1.215161     0.308048    -4.051502
Ne   -1.382208    -0.837830    -3.102622
Ne   -1.302248     1.770524     1.751438
Ne   -2.472853     0.887853    -0.905917
Ne   -0.325008    -0.883816     1.688632
Ne    1.908235     2.036976     0.405972
Ne    1.714932     2.885823    -2.573510
Ne   -1.100319     2.168079    -3.426471
Ne   -3.184672    -0.578384     1.671575
Ne    1.288651     0.990492     3.107060
Ne   -1.694986    -3.069360     2.768325
Ne    0.726066    -3.414911     0.869077
Ne    1.208451    -2.099034     3.683535
Ne   -1.356526    -0.267547     4.214593
Ne    0.318270     0.830280    -1.599585
Ne    3.094330     0.309574    -1.709326
Ne   -0.596774     3.299239    -0.647728
22

Ne     2.037916     1.744211    -2.243445
Ne     0.788092    -0.337709    -4.339185
Ne    -2.180925     1.037451     1.431278
Ne     0.415604    -2.740252     0.422463
Ne     0.136503     2.547714     2.548751
Ne    -0.941063     2.467328    -3.591008
Ne     2.291847     1.528368     0.552452
Ne    -2.322767    -1.413113    -0.563730
Ne     0.019838     0.074186    -0.050705
Ne    -2.361907    -0.322485    -3.737603
Ne    -0.467425    -2.502106    -2.566299
Ne     0.389473    -0.137717     1.862909
Ne    -2.902869     1.452753    -1.481947
Ne     1.007216    -2.233666     3.437963
Ne     2.028708    -1.056582    -1.540287
Ne    -0.425009     0.249908    -1.778767
Ne     2.292713     0.444781     3.607018
Ne     2.809571    -1.292594     1.134915
Ne    -0.672135     0.132495     4.233529
Ne    -1.842626    -2.003222     2.362782
Ne     4.490742     0.479526    -0.919344
Ne    -0.383065     2.766467    -0.343487
