18

Ne   -1.103948    -3.524319    -1.498392
Ne   -2.715190    -1.170319    -0.408876
Ne   -0.290950    -2.414221     1.134245
Ne   -2.113395    -0.346583     2.333223
Ne   -0.722031    -0.820422    -2.501419
Ne    2.360504     1.432305     2.303293
Ne    1.606177    -2.126145    -1.340238
Ne    0.305458     0.348902     1.065984
Ne   -1.973614     1.802625     0.236691
Ne    0.757469     3.047823     0.393719
Ne   -0.467334     2.057718     2.912775
Ne    1.878558     0.001879    -3.513221
Ne    2.448382     0.824629    -0.716366
Ne    0.608736    -0.638930     3.486750
Ne   -0.038150     1.994795    -2.217397
Ne   -0.154404    -0.174441    -0.530646
Ne    2.520964    -1.371543     1.334374
Ne   -2.935838     1.066740    -2.475625
18

Ne    -0.504810    -2.349517     1.831855
Ne    -0.668594     1.808184    -1.877439
Ne     0.959525    -2.331053    -0.884471
Ne     3.521631    -0.391101    -0.933951
Ne    -2.615855    -0.916945     0.217706
Ne    -1.723359    -3.561819    -0.621781
Ne     2.457562     2.307835    -1.503588
Ne     2.917239     1.408661     1.277165
Ne    -2.374201    -0.255644     3.146349
Ne     1.312146    -0.064680    -2.803112
Ne    -0.466700    -0.201514    -0.030592
Ne    -2.231605     1.920813     0.982331
Ne    -1.445127    -1.175844    -2.433412
Ne     2.355273    -1.283580     1.632556
Ne     0.384379     0.748100     2.501018
Ne     1.078690     0.438434    -0.051040
Ne     0.437614     3.119320     0.702302
Ne    -3.500930     0.976704    -1.627154
