6

Ne   -1.093692    -0.344706     2.253238
Ne    1.121202    -2.911290     0.062237
Ne   -1.862819     2.436874    -0.568984
Ne   -0.805398     0.511671    -0.379481
Ne    0.041899    -1.006911    -0.200249
Ne    1.508746     0.970942     1.097505
6

Ne    -0.398027    -1.050849     0.028862
Ne    -0.684508     0.669424     0.006701
Ne     0.121707    -0.092861    -2.464044
Ne    -1.167856     2.969977    -0.025539
Ne     0.225381    -3.198174     0.023546
Ne     2.128075     0.509441    -0.196156
