201

Pd     14.555120     12.500063     14.465922
Pd     16.613511     14.579767     10.494057
Pd     18.622564     12.500030     10.514013
Pd      8.386520     10.420245     14.506490
Pd      6.377539     12.500071     10.514073
Pd     12.499996     14.520187     18.417697
Pd     14.520161     12.500064      6.582035
Pd     14.520149     12.499991     18.418003
Pd     12.499999     10.444831     14.465518
Pd     12.500004      6.377332     10.513801
Pd     12.499998     14.555060     14.466442
Pd     10.420249     16.613502     10.493864
Pd     18.622466     12.499989     14.486027
Pd     10.420247     16.613550     14.506202
Pd     10.444909     12.500071     14.466111
Pd     10.479833     12.500043     18.417848
Pd     14.579783     16.613532     10.493757
Pd      6.377533     12.500046     14.485920
Pd     14.579791      8.386725     14.506283
Pd     12.500000     18.622356     10.514265
Pd     14.579795      8.386672     10.493683
Pd     10.420226      8.386679     10.493777
Pd     12.499995     14.520078      6.582240
Pd     12.500027     14.555015     10.533624
Pd     16.613479     14.579749     14.505979
Pd     12.500012     18.622397     14.485746
Pd     12.499989     10.479764     18.418225
Pd     16.613409     10.420216     14.506479
Pd     14.555171     12.500068     10.534058
Pd     10.420214      8.386705     14.506194
Pd      8.386498     14.579759     14.505996
Pd     12.500015     10.479696      6.581875
Pd     10.479863     12.500031      6.582099
Pd     12.499996     10.444794     10.534459
Pd     12.499980      6.377463     14.486172
Pd      8.386505     10.420222     10.493486
Pd      8.386495     14.579758     10.494092
Pd     16.613442     10.420217     10.493453
Pd     14.579795     16.613574     14.506316
Pd     10.444904     12.500035     10.533947
Au     14.500798     14.500531      4.546715
Au     12.499923      6.436475     18.490101
Au      8.360747     10.358813     18.555962
Au     12.499984      4.472361     16.474520
Au     20.527854     12.500001     16.474588
Au     10.499261     14.500677     20.453265
Au     10.361438     18.655672     16.568068
Au     20.640471     14.529688     14.501785
Au     20.640390     10.470146     14.501577
Au     10.499244     14.500548      4.546701
Au     10.358821      8.360908     18.556099
Au      4.359439     14.529821     14.501763
Au     14.638345      6.344458     16.568071
Au      6.344414     10.361417     16.568095
Au     12.499975      6.436295      6.509973
Au     14.641204     16.639233     18.556084
Au     14.529776      4.359612     10.498403
Au      6.299033      8.314609     14.620927
Au     14.638348      6.344342      8.431921
Au     10.470208     20.640525     10.498286
Au      8.314498      6.299044     10.379245
Au     10.358782     16.639144      6.443920
Au     18.700912      8.314609     14.620838
Au     14.529870     20.640569     14.501648
Au      6.344274     14.638459      8.431971
Au      6.369447      6.369487     12.499943
Au      8.314530     18.700948     14.620982
Au     18.630470      6.369457     12.499936
Au      6.436299     12.499969      6.509854
Au     18.700913     16.685443     14.620967
Au     16.655804      8.344334     16.563195
Au      6.344353     10.361366      8.431857
Au      6.299100     16.685481     10.379073
Au     16.655876     16.656014     16.563180
Au     14.638652     18.655652     16.568161
Au     16.685481      6.298954     10.379138
Au     12.500032      4.234257     12.500035
Au     10.470168     20.640626     14.501687
Au     14.529754      4.359732     14.501609
Au     12.500054     12.499868      4.516086
Au      8.314600     18.700826     10.379008
Au     10.361663      6.344353      8.432026
Au     12.500031     20.765875     12.499941
Au     18.701016      8.314538     10.379000
Au     10.358857      8.360789      6.443965
Au     16.685382      6.299107     14.620730
Au     14.500565     10.499325      4.546832
Au     14.641220      8.360757      6.443951
Au     18.630601     18.630503     12.500018
Au      6.299044     16.685514     14.620971
Au     16.685502     18.700957     14.621033
Au     18.655759     14.638398      8.431973
Au     10.499357     10.499354     20.453329
Au      6.298956      8.314593     10.379056
Au      8.344098      8.344337     16.563198
Au     18.700947     16.685470     10.379089
Au     18.563595     12.499934     18.490168
Au     14.500658     14.500613     20.453332
Au      8.360791     10.358712      6.444026
Au     14.500609     10.499288     20.453398
Au      4.359492     14.529829     10.498243
Au     16.685432     18.700871     10.378988
Au      4.359574     10.470211     10.498429
Au     12.500043     18.563726     18.490207
Au     16.639229     10.358694      6.444064
Au      8.360773     14.641178     18.556099
Au     10.358808     16.639267     18.556028
Au     20.640477     10.470189     10.498410
Au      4.234191     12.500006     12.499957
Au     14.638584     18.655585      8.431900
Au     16.639182     14.641066      6.443882
Au      6.369398     18.630564     12.500040
Au      6.436281     12.499999     18.490117
Au     18.655499     10.361474     16.568084
Au      8.314550      6.299123     14.620732
Au      4.359498     10.470221     14.501536
Au      8.344053      8.344269      8.436814
Au     10.470228      4.359588     10.498456
Au     20.765798     12.499903     12.500053
Au     16.655849     16.655974      8.436846
Au     20.640549     14.529757     10.498281
Au     16.655851      8.344263      8.436722
Au     18.563752     12.499964      6.509856
Au     18.655637     10.361413      8.431829
Au     10.470274      4.359725     14.501578
Au     18.655706     14.638377     16.568119
Au      6.344253     14.638501     16.568099
Au      8.344149     16.655901      8.436891
Au     16.639176     10.358747     18.556049
Au     14.529814     20.640503     10.498339
Au      8.360830     14.641002      6.443903
Au     14.641169     16.639129      6.443928
Au     14.641054      8.360911     18.556091
Au     10.361627      6.344411     16.568029
Au     12.499967     12.499966     20.483916
Au     16.639150     14.641120     18.556198
Au     10.499475     10.499238      4.546867
Au     10.361443     18.655574      8.431944
Au      8.344061     16.656055     16.563090
Au     12.499948     18.563549      6.509712
Au     16.478023     12.500078     20.386272
Au     12.500047      8.521952      4.613917
Au     16.478112     12.499964      4.613888
Au      6.396764     10.470649     12.499972
Au     12.499943     16.579930     12.500024
Au     12.499885      8.522084     20.386278
Au     20.581913     16.574739     12.500073
Au     12.500006     20.527963      8.525307
Au     18.602837     14.529260     12.499997
Au     12.499927     16.478284     20.386287
Au     12.499983      4.472231      8.525526
Au     16.593278     16.593076     12.500014
Au     10.447332     14.552853     16.436836
Au      8.427071     12.499851     16.422012
Au     16.574773     20.582007     12.499959
Au     20.527906     12.499987      8.525439
Au      4.472012     12.500035     16.474543
Au     10.440677     10.440005     12.499974
Au      8.425200     20.582055     12.499925
Au     12.499937     12.500433     16.415685
Au     10.470400      6.396900     12.499957
Au     12.500098     12.499595     12.499973
Au     14.560305     14.559623     12.500005
Au     12.499932      8.421441     12.499937
Au      4.418008     16.574845     12.499994
Au     14.559366     10.440158     12.499973
Au     14.553231     10.446966      8.563279
Au     14.529632      6.396806     12.499945
Au     12.499933     12.500413      8.584314
Au     10.470853     18.602888     12.500015
Au     12.500041      8.426939     16.422020
Au     12.499973     16.478077      4.613660
Au     12.500001     20.528088     16.474603
Au     16.579270     12.500391     12.499965
Au      8.521829     12.500142     20.386174
Au     16.573044     12.499839      8.577967
Au     12.500063     16.572829     16.422003
Au     16.572949     12.499831     16.422052
Au     10.439785     14.559754     12.500023
Au      8.427093     12.499833      8.577986
Au     10.446791     10.447101     16.436734
Au     10.447375     14.552784      8.563195
Au      6.397226     14.529235     12.500031
Au      4.472030     12.500014      8.525445
Au     12.500019     16.572746      8.577987
Au     14.552683     14.552963     16.436837
Au     16.574669      4.418241     12.499991
Au     14.529208     18.602963     12.500000
Au     14.553205     10.446990     16.436736
Au     18.603292     10.470531     12.499933
Au     16.593284      8.406645     12.499918
Au      8.425264      4.418265     12.500053
Au     10.446829     10.447042      8.563244
Au      8.406831     16.593059     12.500027
Au      8.406757      8.406677     12.499958
Au     14.552651     14.552903      8.563187
Au     20.581823      8.425352     12.499915
Au     12.500062      8.426848      8.577988
Au      8.521908     12.499961      4.613810
Au      8.420499     12.500391     12.499992
Au      4.418039      8.425414     12.500061
201

Au      6.227400     10.781933     -9.322198
Au     17.025165     14.231695    -14.035374
Au     19.056192     15.740741     -9.891624
Pd     14.190297      6.117266    -13.027570
Au      7.853563      6.712162    -11.345995
Au     14.153744     11.890548     -6.569786
Au     20.476139      7.597991    -12.470946
Au     16.426331     13.637673     -6.314755
Au     10.153418      8.532178    -11.053456
Au      7.912876     10.184170     -7.015669
Au     11.182974     16.917808    -14.483921
Au     22.254781      9.152558     -8.124715
Au      8.632482     14.778917    -10.703803
Au     13.552573     20.585134    -12.054883
Au     12.568997      8.702279    -16.952420
Au     14.623211     15.865170     -6.217141
Au     18.418010     13.441274     -3.924050
Au      6.874426     16.983406    -10.851495
Au     13.406507     18.779971    -14.287476
Au     10.347833      8.605909    -15.266704
Au     16.414020      6.014306    -14.956369
Au     15.179484     12.663294    -18.444318
Au     13.170690     20.171447     -8.044903
Au     20.046674     11.033344     -4.066531
Pd      8.304763     12.509880     -8.996632
Pd     18.543298      9.814061    -12.411912
Au     13.438874      5.733772     -5.015387
Pd     17.108091     12.417380    -16.245851
Au     14.204363     15.446824     -2.329178
Au     17.640257     16.479133    -15.974425
Pd     18.927546     13.972072    -11.928809
Pd     15.141629     14.481027    -16.261423
Pd     13.913748      9.617389     -4.749968
Au     14.961792     19.861196     -5.874233
Au     22.609660      9.418046    -11.990732
Au     15.280252     16.370013    -14.107745
Au     22.805300     11.558171    -13.839704
Au     18.720692     15.495787     -5.911357
Pd     16.871000     15.839623     -7.950398
Au     17.112917     18.028630     -9.870744
Au     19.198619     12.366321    -18.087509
Au     17.261365     19.818263     -7.795098
Au     13.300924     16.954478    -16.247925
Pd     11.992384     11.938215     -4.675758
Pd     14.260541      9.879279     -8.756680
Au     15.878713      7.276303     -4.707881
Au      6.533318     10.972003    -13.256769
Au     13.808791      3.992446    -11.180199
Au     19.422583     14.327706    -16.053592
Au     18.527822     11.674562    -10.160999
Au     20.126754      5.346898    -10.581281
Pd     13.113594     16.531654    -12.403500
Au     12.631436     10.535013    -14.728862
Au      6.201492      8.753072    -11.493245
Au      9.047310     15.182357    -14.747028
Au     18.377766     11.377063     -6.289631
Au     10.471561     12.461904    -10.732464
Au     14.469719      8.390050    -14.729951
Au     15.605258     16.609313    -18.011079
Au     13.928756     11.492086     -2.654870
Au     12.045985      4.325158    -13.344090
Au     19.067492     17.695530     -7.529733
Au      9.695071     10.001682     -5.046088
Au     10.873860     18.567150     -8.196429
Au     16.828350     17.762315     -5.710888
Au     17.973903      5.332305     -8.638689
Pd     13.787027      5.863694     -9.085471
Au     21.043344     11.988524    -16.040652
Au      9.110315     13.190564    -16.986743
Au     18.360020      5.672171    -12.852470
Au     21.233443     15.777904    -11.899084
Au     13.145989     18.332670    -10.210597
Au     18.228904      7.555415    -10.534901
Au     11.974349      6.271177    -11.115200
Pd     10.899222     14.692986    -12.608828
Au     13.130971     10.831864    -18.768668
Pd     10.468568     10.628264    -13.051340
Au      7.840862      8.319315     -9.172723
Au     17.276243     14.496771    -18.032905
Au     13.317274     14.929644    -18.325840
Au     22.602225     13.272379     -7.815338
Au     19.351024     16.122982    -13.813223
Au     20.524593     13.281043     -5.868835
Au     15.998627      9.604155     -6.693708
Au     10.659595     10.761134    -16.992077
Au     20.771142     13.589980     -9.808455
Au     11.296151     13.117143    -18.681567
Au     16.626528     15.505630     -3.936708
Au     15.356093     20.230266     -9.757128
Pd     20.849816     11.692316    -11.938896
Au      6.287369     12.849518    -11.021047
Au     12.611242     14.278880    -10.493743
Au     21.136207     17.621369     -9.486950
Au     11.759681      9.813481     -2.831955
Au     20.843140     15.588147     -7.571183
Pd     10.554621     14.430068     -8.689169
Au     18.024566      9.214787     -4.331658
Pd     16.125332      7.713537     -8.778432
Au      9.140494     18.787004    -10.448498
Au     18.889358     11.984011    -14.150857
Au     15.596553     20.341684    -13.887653
Au     16.779564      8.156633    -16.703418
Au     17.626894     18.300684    -13.842924
Au     14.659780     12.184121    -10.536488
Au     17.843706      3.607122    -10.931846
Au     21.192751     13.970974    -13.909020
Au     14.638049     17.711695     -4.027171
Au     10.058576      6.531822    -13.425959
Au     11.057883     18.782079    -12.332752
Pd     14.929067     18.100053     -7.940587
Au     14.774240      8.826167    -18.606972
Au     22.278261      7.262955    -10.244060
Au     11.576517      7.733031     -5.002329
Au     15.602528      3.648451     -9.112755
Au     18.971437      9.973743    -16.374969
Au     10.542415     16.378514     -6.484268
Au     10.755020     12.764946    -14.705402
Au     16.454165      9.929234    -10.511008
Pd     16.445087      8.016595    -12.763299
Pd     12.326288      8.354520    -12.907244
Au      8.664043     16.770204     -8.477150
Au     13.026238     14.556959    -14.298768
Au     15.978715      4.015066    -12.972286
Au      9.745957      4.384633    -11.370500
Au     15.689982      9.385441     -2.667507
Au      8.156252     12.275924     -4.996701
Pd     13.122518     12.814401    -16.449508
Au     13.875589      7.701790     -6.932672
Au      6.185447     12.503847     -7.064684
Pd     18.744633     13.672559     -8.118192
Au     22.946446     15.399813     -9.641132
Au     20.795319      9.608800    -14.181465
Pd     12.287938     12.202110     -8.594544
Pd     14.535542     14.051602     -8.346011
Pd     16.839632     12.036728    -12.335644
Au     15.828836      5.490381     -6.700718
Au     14.901565     16.201705    -10.180799
Au     23.001070     13.447598    -11.793516
Au     11.200185     15.032163    -16.740936
Au      7.012839     13.190928    -14.975432
Au      9.571687      6.108455     -9.119828
Pd     14.822936     14.236380    -12.350618
Pd     15.324852     18.391414    -11.997075
Au     16.012667      5.877696    -10.806688
Au     18.725018      7.875481    -14.596035
Au     17.794094     11.085109     -2.309309
Au     11.587564      5.926038     -7.152049
Au     19.332614     19.647086     -9.563373
Au     11.736362      4.130306     -9.242291
Au     10.258980     12.150452     -6.980683
Au     13.645981      7.596783     -3.037619
Au     14.521100      6.614761    -16.929793
Au     15.696895     18.589922    -16.017024
Pd     12.056610      8.035706     -8.947979
Au     22.820930     11.232998     -9.836248
Pd     16.400508     11.718119     -8.367074
Au      8.995107     17.011189    -12.622248
Au     12.299097     10.352497    -10.753581
Pd     16.073263     11.388478     -4.482751
Au      8.335192     10.697806    -11.040080
Au     20.406154      9.436702    -10.278925
Au     10.071058     14.114794     -4.659729
Au      9.898979     12.008089     -2.881170
Au     11.304980     20.508305    -10.105207
Au     12.295242      6.437672    -15.284020
Au      8.534711     10.839611    -15.202470
Au      6.525091     14.784240     -9.020471
Pd     14.866724     10.529100    -16.500140
Pd      8.646206     12.755829    -12.946680
Au      6.740839     14.982266    -12.972684
Au      9.770288      8.034231     -7.103061
Au     12.371433     15.944482     -4.284074
Pd     14.213570     13.723144     -4.457798
Au     12.045371     13.644947     -2.526151
Pd     17.156064     16.102011    -12.036964
Au     16.719132     10.140706    -14.401727
Au     12.637295     18.036181     -6.188430
Au     14.865553     12.461249    -14.328880
Au     17.989328      7.288591     -6.490860
Au     22.258671     11.115862     -5.996223
Au     16.914095     10.480253    -18.407357
Au     13.420150      3.897474     -7.211368
Au     14.259654      8.141981    -10.737752
Au     16.145357     13.328870     -2.282755
Au     19.436178     18.063686    -11.783324
Pd     18.344980      9.563502     -8.433066
Pd     14.440558     10.234837    -12.647330
Au     11.977349     10.024396     -6.924096
Au      8.281512      8.614412    -13.410615
Au     14.149536      4.438885    -15.109723
Pd     20.392226     11.294192     -8.058817
Au     17.517909     20.092980    -11.657271
Au     10.973416     16.491857    -10.462709
Au     20.193639      9.173374     -6.081482
Pd     12.596347     12.478152    -12.509189
Pd     12.616270     16.276928     -8.235461
Au      8.401797     14.549585     -6.639337
Au     16.730245     13.861942    -10.160243
Au     12.463473     14.124201     -6.656385
Au     20.063910      7.179113     -8.367371
Pd     10.033427     10.272414     -9.048141
