100

Co     0.794049    -1.274610    -1.878660
Co    -0.416039     0.265292    -0.339140
Co    -1.177820    -0.806021     0.605540
Co     1.618910     0.491588     1.675460
Co    -0.844538     0.467296    -1.892720
Co     0.934069     0.413143     0.997902
Co    -0.631156    -0.026457     0.524121
Co    -1.535050     0.115820     0.838469
Co    -0.558317    -1.313170     0.035342
Co    -1.659460    -0.601563    -0.951603
Co     0.918668    -0.311525    -2.125470
Co    -0.177622     0.550045    -1.202240
Co     1.869830     0.250526     0.754424
Co    -1.496800     0.991243    -1.309390
Co     1.788140     0.936687     0.032078
Co    -0.959693     0.332412     2.109710
Co     2.292780    -0.225456    -1.125210
Co     0.419869     1.329250    -1.281230
Co     0.837567     1.095540     0.281281
Co    -1.396340    -1.118200     1.510650
Co    -0.842127    -1.220140    -0.936934
Co    -0.057540     0.712800     1.921990
Co     0.083658     0.832850    -2.077260
Co     0.684557    -0.473798     0.648250
Co    -1.887360    -0.371996     0.018728
Co    -0.768414    -1.648840     0.946722
Co    -0.429978    -1.154790     1.751810
Co    -0.743203     0.637896     1.201850
Co    -0.573134     1.369100    -1.520270
Co    -0.853994     1.294180     1.885200
Co     1.658660     1.598080    -0.692359
Co    -0.136578    -1.105290    -1.639900
Co     1.006770     0.655798    -2.321900
Co     0.053219     0.036938     1.223460
Co    -0.946451     1.767720     0.026887
Co    -0.839526    -0.328418     1.407270
Co     0.138816    -1.225860    -0.677416
Co     0.739774     0.113067     1.909160
Co    -0.398976    -2.034740    -0.598717
Co     1.378500    -0.061939    -0.854694
Co     0.628683    -0.586699    -1.240850
Co     1.828450    -0.882312    -0.557120
Co     0.821283    -2.158150     0.581149
Co     0.203144    -1.669710     1.172890
Co     0.564618    -2.053620    -0.365872
Co    -1.213050     1.865050    -0.928709
Co    -2.187300     0.554606     0.250981
Co    -1.532430    -1.279400    -0.211328
Co    -1.733810    -0.194961     1.736090
Co     0.747700     1.774580     0.974413
Co    -0.162269    -0.265438     2.119100
Co     0.250673     0.339843     0.324410
Co    -1.297930     0.412375    -0.052672
Co    -1.745830     0.094541    -1.659930
Co     0.733896     1.786800    -0.445377
Co    -0.973170    -0.497502    -0.287888
Co    -0.659986     1.619410     0.985826
Co     0.910229    -0.714137    -0.289700
Co    -1.720680    -1.585100     0.696116
Co     1.372940    -0.399424     1.329270
Co     0.732393     0.382649    -1.460350
Co     0.469617     0.102432    -0.590278
Co     0.834887     1.088760     1.686520
Co     1.535910     1.173090     0.966699
Co     0.298813    -1.915750    -1.311200
Co     0.405890    -1.341520     0.273246
Co     1.077740    -1.423390    -0.942540
Co     2.096760     0.008968    -0.189054
Co    -1.098510    -2.090580     0.119491
Co    -0.539167     0.944526     0.307641
Co     1.332810    -1.533470     0.017668
Co    -1.631330     0.776617     1.543090
Co     0.144986     1.025580    -0.394729
Co     0.033737     1.670900     1.672800
Co     0.141760     1.012680     0.995826
Co     1.623010    -0.651159     0.393746
Co     0.045896     1.730450     0.281670
Co    -0.022360    -0.139873    -1.888030
Co    -1.442390     1.106520     0.629258
Co     1.555710    -0.757221    -1.510660
Co     1.063000     0.856307    -0.644937
Co    -1.077880     0.179433    -0.996473
Co     0.481040    -0.789593     1.561340
Co    -0.287520    -0.411476    -0.988250
Co    -0.011527    -0.531237    -0.035333
Co    -1.992990     0.326735    -0.715584
Co    -0.812290     1.061990    -0.631976
Co    -0.137310    -2.140980     0.352748
Co    -0.954479    -0.513226    -1.671330
Co    -2.071800    -0.686769     0.938814
Co     1.663040     0.216816    -1.737170
Co    -1.721670     1.228400    -0.343240
Co     1.177450     0.173590     0.076912
Co     1.104270    -1.291990     0.960627
Co    -0.213242    -0.848291     0.857866
Co     1.428950     1.838370     0.239216
Co     1.354360     1.135980    -1.527710
Co    -0.242988     1.850910    -0.694888
Co     1.991470     0.690386    -0.912866
Co    -1.058960    -0.630769     2.299460
100

Co    -2.000203     0.036285    -1.071630
Co     0.862001     0.727479     0.132844
Co     0.730460     1.516954    -0.036849
Co    -1.220816     0.686747    -0.469601
Co     0.657578     0.144804     2.574235
Co    -0.565020     0.534998    -0.135533
Co     0.224060     0.198588    -1.151389
Co    -0.601249     0.361256    -1.115904
Co     0.123763     1.747631    -0.914158
Co    -0.464279     0.640278     1.095097
Co    -0.525179    -0.135996    -1.524749
Co     0.828896    -1.352035    -1.987835
Co    -0.702725     0.075934     0.819902
Co    -1.507613    -1.235406    -0.460360
Co     0.986327    -0.485728    -1.971786
Co    -0.509236     1.101151    -0.391037
Co    -1.419922    -1.606173     0.036976
Co     0.977341    -1.639304    -0.966044
Co    -2.070954    -0.306502    -0.502171
Co     1.916165     0.321706    -0.312609
Co     1.467192     1.428051     0.879911
Co    -1.490626    -1.523733     1.311461
Co     0.462720    -0.861358    -0.254881
Co    -0.705136    -1.301441     1.848575
Co    -0.362236    -0.549774    -0.499697
Co     0.556097    -1.884181    -0.200303
Co    -1.364313    -0.166289    -0.963292
Co    -0.129057    -1.392110    -1.914247
Co    -0.048868     1.572629     1.724602
Co    -1.244467     0.158015    -1.727446
Co     1.793617     0.864543    -1.267484
Co     1.132993     1.755449     1.716272
Co    -1.805818     1.121717     0.344273
Co     0.823791     1.211853    -0.900803
Co    -0.711158     1.457694     1.807673
Co     0.357544     0.248548     1.807314
Co     0.204318    -0.681172    -2.341150
Co     0.379727     0.157197     0.756987
Co    -0.703432    -0.940255     0.721200
Co     0.057973     1.219989    -1.444420
Co    -1.641524    -0.923356     0.278004
Co     2.167595    -0.100425     0.168880
Co     0.708888     0.830573     2.008344
Co    -1.445031     0.630963     1.321152
Co     0.143932    -0.842627    -1.133178
Co    -1.144735    -1.941241    -0.578853
Co    -0.615471    -2.052202     0.938012
Co     1.802612    -0.864969     0.601484
Co    -1.006884     0.708518     0.667345
Co    -1.042329    -0.201678    -0.112515
Co     1.090898    -1.737655     0.703680
Co    -1.617380     1.511880     1.267921
Co    -1.833142     0.168223     0.440460
Co     0.048031    -1.918781    -0.976208
Co     0.621856     1.884231     0.967574
Co     0.229116     1.045654     0.280290
Co    -0.504857    -0.183664    -2.397155
Co    -1.415278    -0.551307     1.459502
Co     0.137965     0.111570    -2.199823
Co    -1.729105    -1.013242    -1.314037
Co    -0.097902     1.999160     0.065037
Co     0.390555    -1.353648     1.609650
Co     0.371049     0.974430    -0.334360
Co    -1.482091     1.532807    -0.468344
Co     1.808793    -0.199844    -1.254895
Co     0.086154    -0.580137     2.045245
Co     1.425793    -0.152833    -0.132818
Co    -0.215663    -0.321522     0.110827
Co    -1.373159     0.574976    -1.335396
Co     1.135787     0.440336    -0.577221
Co    -0.207880    -0.543669     1.280906
Co    -0.753335     2.230862    -0.404404
Co    -0.214558    -2.246494     0.000263
Co     1.167324    -0.662539    -0.782196
Co    -0.706087    -0.912571    -0.991160
Co     0.739623    -0.777690     1.282104
Co     1.214553    -1.075233    -0.236770
Co     0.749858     0.741311     1.348003
Co    -0.652409    -1.224333    -0.215529
Co     1.063159     0.698455    -1.498685
Co    -0.970520    -1.082277    -2.195428
Co     1.162881    -0.044246     1.019327
Co     1.800690     0.445855     0.321120
Co     1.679821     1.287326    -0.094700
Co    -2.061014     0.685997    -0.701404
Co     0.535894    -0.503475     0.617565
Co     0.466395    -0.162442    -0.084411
Co    -0.395832    -0.161708     1.624682
Co    -0.606031     1.864835     1.197843
Co     1.504041    -1.098855    -1.386468
Co    -0.474433     0.511485    -1.848912
Co    -1.098872     1.975893     0.434300
Co    -0.724581     1.611459    -1.272110
Co     0.063367     0.761686     2.401397
Co    -0.142117    -1.442505     0.511855
Co     2.198222    -0.120124     1.181247
Co     0.428305    -2.213762     0.753654
Co     1.947903    -0.744292    -0.433646
Co     1.669974     0.997331     1.473092
Co     1.342492     0.107823     2.067384
