10

Li    -0.112679     1.154350    -0.194840
Li     0.455530    -0.141699     1.074987
Li    -1.076845    -0.472850    -0.000760
Li     0.772284     0.650565     0.318426
Li    -0.156612    -0.917109     0.505407
Li    -0.704034     0.331528    -0.717968
Li     0.749397    -0.438280     0.048302
Li    -0.145156    -0.631595    -0.579685
Li     0.417694     0.318313    -0.692983
Li    -0.199579     0.146776     0.239113
10

Li    -0.722492     0.356971     0.305374
Li     1.164056     0.627548    -0.257634
Li     0.008200     0.976767    -0.519877
Li    -0.577703    -0.635507     0.197560
Li    -0.600763    -0.066946    -0.932690
Li     0.279381     0.673872     0.527479
Li     0.006973    -0.156700    -0.283983
Li    -0.328883    -0.245080     0.757055
Li     0.212597    -0.933801     0.478394
Li     0.945852    -0.265164     0.364185
