150

Li     0.042659    -0.000000    -0.055928
Li     0.045209     0.000003     0.978913
Li     0.328752    -0.881106     0.407796
Li    -0.705722    -0.545273     0.406137
Li    -0.705722     0.545275     0.406134
Li     0.328752     0.881108     0.407791
Li     0.968949     0.000001     0.407487
Li    -0.244635    -0.881222    -0.518179
Li    -0.884676    -0.000002    -0.517755
Li    -0.244636     0.881219    -0.518184
Li     0.791104     0.544653    -0.518666
Li     0.791104    -0.544656    -0.518662
Li     0.041026    -0.000003    -1.090790
Li     0.041422     0.000006     2.040728
Li     0.337108    -0.901657     1.478492
Li    -0.717741    -0.559611     1.473730
Li    -0.717741     0.559619     1.473727
Li     0.337108     0.901666     1.478487
Li     0.990763     0.000004     1.479061
Li     1.283113    -0.901286     0.892620
Li     0.621926    -1.783978     0.882958
Li    -0.431111    -1.459486     0.892531
Li    -1.473943    -1.100350     0.884878
Li    -1.488422     0.000002     0.885888
Li    -1.473943     1.100355     0.884872
Li    -0.431111     1.459491     0.892522
Li     0.621925     1.783983     0.882948
Li     1.283113     0.901291     0.892615
Li     1.917842     0.000003     0.882685
Li     1.101422    -1.458693    -0.055348
Li     0.041320    -1.802993    -0.054562
Li    -1.018590    -1.459053    -0.053581
Li    -1.672846    -0.557827    -0.054612
Li    -1.672846     0.557827    -0.054615
Li    -1.018590     1.459052    -0.053589
Li     0.041320     1.802992    -0.054572
Li     1.101421     1.458693    -0.055356
Li     1.756414     0.557217    -0.055708
Li     1.756414    -0.557217    -0.055705
Li     0.514809    -1.458788    -1.002744
Li    -0.539284    -1.784197    -0.991496
Li    -1.199901    -0.901707    -1.001313
Li    -1.834907    -0.000003    -0.991010
Li    -1.199902     0.901701    -1.001318
Li    -0.539285     1.784191    -0.991507
Li     0.514808     1.458782    -1.002752
Li     1.558522     1.102688    -0.993539
Li     1.574706    -0.000003    -1.003515
Li     1.558522    -1.102693    -0.993533
Li    -0.252571    -0.901572    -1.588068
Li    -0.907437    -0.000005    -1.587620
Li    -0.252571     0.901563    -1.588074
Li     0.807285     0.557243    -1.588871
Li     0.807285    -0.557252    -1.588868
Li     0.039937    -0.000006    -2.151845
Li     0.026724     0.000009     3.137556
Li     0.337952    -0.913138     2.566880
Li    -0.734857    -0.568279     2.559636
Li    -0.734858     0.568293     2.559633
Li     0.337952     0.913153     2.566875
Li     0.999197     0.000007     2.568224
Li     1.307493    -0.918707     1.992633
Li     0.635140    -1.821192     1.977520
Li    -0.438253    -1.488434     1.991539
Li    -1.498105    -1.122498     1.977466
Li    -1.502215     0.000006     1.969458
Li    -1.498105     1.122509     1.977460
Li    -0.438253     1.488446     1.991531
Li     0.635140     1.821203     1.977510
Li     1.307493     0.918719     1.992628
Li     1.956679     0.000006     1.977888
Li     2.254064    -0.913895     1.382885
Li     1.595199    -1.820960     1.382811
Li     0.925241    -2.716944     1.373473
Li    -0.143475    -2.386569     1.383629
Li    -1.210405    -2.037450     1.385866
Li    -2.268052    -1.666303     1.387208
Li    -2.280728    -0.554213     1.380515
Li    -2.280728     0.554221     1.380512
Li    -2.268053     1.666311     1.387198
Li    -1.210405     2.037458     1.385855
Li    -0.143475     2.386577     1.383615
Li     0.925240     2.716952     1.373458
Li     1.595198     1.820968     1.382800
Li     2.254063     0.913903     1.382880
Li     2.898672     0.000004     1.373090
Li     2.088615    -1.487071     0.427584
Li     1.411093    -2.386207     0.421643
Li     0.336170    -2.735181     0.422483
Li    -0.741074    -2.406239     0.430081
Li    -1.805960    -2.036909     0.428581
Li    -2.467955    -1.124307     0.426661
Li    -2.488077     0.000001     0.428020
Li    -2.467955     1.124310     0.426654
Li    -1.805960     2.036911     0.428569
Li    -0.741075     2.406241     0.430067
Li     0.336170     2.735184     0.422467
Li     1.411092     2.386209     0.421630
Li     2.088614     1.487074     0.427576
Li     2.734195     0.564893     0.421172
Li     2.734195    -0.564890     0.421175
Li     1.887426    -2.039798    -0.532625
Li     0.822701    -2.406292    -0.537996
Li    -0.254403    -2.735374    -0.530456
Li    -1.329450    -2.386160    -0.528618
Li    -2.006292    -1.487529    -0.534973
Li    -2.651561    -0.565378    -0.529433
Li    -2.651561     0.565374    -0.529436
Li    -2.006293     1.487525    -0.534982
Li    -1.329451     2.386157    -0.528632
Li    -0.254404     2.735371    -0.530472
Li     0.822700     2.406289    -0.538010
Li     1.887426     2.039796    -0.532637
Li     2.551609     1.125685    -0.533005
Li     2.571296    -0.000001    -0.539248
Li     2.551609    -1.125688    -0.532998
Li     1.292600    -2.039896    -1.493312
Li     0.225721    -2.386374    -1.492172
Li    -0.843281    -2.717150    -1.481097
Li    -1.512991    -1.821478    -1.490454
Li    -2.171594    -0.914223    -1.490333
Li    -2.816441    -0.000004    -1.480523
Li    -2.171594     0.914214    -1.490339
Li    -1.512992     1.821470    -1.490464
Li    -0.843281     2.717141    -1.481112
Li     0.225721     2.386366    -1.492186
Li     1.292599     2.039887    -1.493324
Li     2.351749     1.679363    -1.484505
Li     2.367381     0.560730    -1.494136
Li     2.367381    -0.560738    -1.494133
Li     2.351750    -1.679371    -1.484495
Li     0.523009    -1.487330    -2.101586
Li    -0.552226    -1.821485    -2.085557
Li    -1.225241    -0.919225    -2.100079
Li    -1.875105    -0.000006    -2.084929
Li    -1.225241     0.919212    -2.100084
Li    -0.552226     1.821473    -2.085568
Li     0.523009     1.487318    -2.101595
Li     1.589257     1.125747    -2.087656
Li     1.603644    -0.000006    -2.102435
Li     1.589257    -1.125759    -2.087650
Li    -0.257654    -0.914213    -2.675780
Li    -0.921707    -0.000008    -2.675313
Li    -0.257654     0.914197    -2.675785
Li     0.817035     0.565012    -2.676671
Li     0.817035    -0.565027    -2.676668
Li     0.038988    -0.000009    -3.248572
Li    -1.529557     0.000009     3.070596
Li    -2.300096     0.559519     2.482862
Li    -2.300096    -0.559505     2.482865
150

Li    -2.081088     1.328599     0.728603
Li     1.589388    -0.158669    -0.750667
Li     0.052814    -0.416998    -2.554006
Li     0.846810    -1.459410    -2.283028
Li    -1.672087    -0.528831     2.804556
Li     2.255653    -1.314249    -0.625347
Li     1.906146     1.887030    -0.777122
Li     2.280774     0.100785    -1.848894
Li    -0.495431     1.519842     1.269804
Li    -1.457317    -1.509807    -0.292684
Li    -1.769170     0.760952     1.824854
Li    -0.895326     1.308704     2.377153
Li     1.787243     0.890976     1.970576
Li     0.638113    -2.465996    -0.892797
Li     1.447401    -1.095936     2.491797
Li    -1.940864    -1.802157     0.541945
Li    -1.244238    -2.469465    -0.676190
Li     0.055821    -1.037435     0.532376
Li     1.137710     0.405373    -1.634891
Li     2.530923    -0.558489    -0.812227
Li     0.926322    -0.425833    -0.143164
Li     0.721572     1.546737     0.958624
Li    -1.127612     0.507014     0.259406
Li    -0.402288    -0.652183    -3.499040
Li    -1.170810    -2.352128     0.336232
Li     0.882916    -0.707176    -1.493125
Li    -0.668939    -0.942033    -2.476984
Li     0.744145     0.734325     2.746819
Li     2.332262     0.529130    -0.671245
Li     1.397106     2.611790    -0.247360
Li    -2.037292    -1.211275     1.685936
Li    -0.666862     2.415416     0.903912
Li     0.183943    -0.018441     0.183523
Li    -1.033882     1.719175    -1.720170
Li    -1.427524     1.830278     1.635801
Li     1.855018     1.362581    -1.702019
Li     2.430788     1.228895     0.296069
Li    -0.631538     0.377671    -2.617573
Li    -0.023049     0.221046    -1.719104
Li     1.516277    -2.141037    -0.146877
Li     0.382739     1.859817    -0.236295
Li     0.676665    -0.454635    -3.244611
Li    -0.593442    -0.403339     2.641840
Li    -0.003583     2.217422    -1.667743
Li    -1.119159    -0.454095     1.753921
Li    -1.122259    -1.533888    -1.730287
Li     1.600694     0.415214    -0.049462
Li    -2.699148     0.760684    -0.808355
Li     0.422887     2.854826    -0.814923
Li     1.556892     0.791440    -2.745509
Li    -0.332642     0.438909     2.627846
Li    -0.355347     1.085800    -2.240136
Li     2.062926    -1.761985     0.415358
Li    -1.890382     0.821187    -0.004801
Li     2.041336    -0.481952    -0.095888
Li     3.108413    -0.844400     0.159371
Li    -2.537033    -0.635666     1.037656
Li    -0.218511    -2.583068    -0.112453
Li    -1.555093     2.131380    -0.605699
Li    -2.779582     0.083507     0.002829
Li    -2.479807    -0.542389    -1.039235
Li    -0.976518    -1.464589     2.125456
Li    -1.331714     1.157220     0.751048
Li     0.721992     0.394728    -2.716949
Li     0.422290     0.914614     1.578107
Li     0.581520    -0.196033     2.898983
Li    -1.618275    -0.493187     0.053469
Li     0.526032    -0.793572     1.561252
Li     1.382242    -0.315838     1.065717
Li    -2.402287    -1.328958    -0.230384
Li    -0.160755     0.874112    -0.225530
Li    -0.187694    -1.059153     1.330714
Li    -0.320049     2.039973    -0.635252
Li     0.203602    -1.977158     0.739216
Li    -0.058011    -2.201333     1.753725
Li    -0.436028     1.588760     0.163939
Li    -2.152750    -2.167064    -0.286846
Li     0.412273    -2.899542     1.484277
Li    -1.689528     1.117931    -1.416978
Li     1.278995     0.857150    -0.559851
Li     0.492584     2.390123     1.429524
Li     1.041501     1.596361     1.794956
Li    -2.230671     0.223593    -1.608444
Li    -1.275660    -0.812492     0.925256
Li    -2.127121    -0.315037     1.799595
Li     1.325937    -1.176721    -0.668318
Li    -0.196003    -2.445940     0.854134
Li    -1.055171     1.329811    -0.179487
Li    -1.961001    -0.753838    -1.960232
Li    -0.391081    -1.544372    -0.881200
Li     0.291993    -0.884793    -0.402119
Li    -0.969868     0.035262    -1.893620
Li     0.231011     2.508381     0.353534
Li     0.647608     0.163041     0.860928
Li    -0.032824    -0.034082     1.932072
Li     1.110641     0.007671     1.717054
Li    -2.652717     0.470069     1.136233
Li     0.426499    -1.629626    -1.221124
Li     1.210317     0.840869     1.077366
Li    -0.649607     0.543918     1.668243
Li    -1.281582     2.266389     0.405007
Li     1.506212     1.537831     0.457709
Li    -1.498793     0.304136    -0.761736
Li     0.386764     0.153800    -0.926047
Li     0.533714    -1.527920    -0.267841
Li    -3.113564     0.938951     0.185039
Li     2.321561     2.313495     0.468026
Li     1.300081    -0.338008    -2.259609
Li     1.851253    -0.896910    -1.370363
Li     1.065710     1.341563    -2.039587
Li     0.459871    -2.629754     0.223222
Li     1.256322    -2.129111    -1.381980
Li     1.604219    -1.220109     1.563114
Li     0.915417    -2.049048     2.036493
Li    -1.297530     1.056273    -2.199443
Li     2.266842    -0.143417     1.707572
Li    -1.453820     0.419660     2.339509
Li     1.146108     2.498685     0.791549
Li    -2.359347     1.513964    -0.385106
Li    -1.468542     0.276364     0.993245
Li    -2.128163    -1.498640    -0.947425
Li     0.694083     0.896076     0.178521
Li    -0.651255     1.146861    -1.241548
Li     1.385862    -2.114016     0.928951
Li    -0.243088    -2.398686    -1.247722
Li    -0.594352     2.740030    -1.270946
Li    -0.716759    -1.470682     0.357112
Li     2.592006     0.257291    -0.020008
Li     1.719466     0.230873     2.641531
Li    -0.305476     0.624883     0.670771
Li    -0.916780    -0.691438    -0.003976
Li     0.415675    -1.437018    -2.959115
Li    -0.247405    -0.760072    -1.530296
Li     0.771974    -2.182476    -2.136228
Li     1.200331    -1.086341     0.566022
Li    -0.730839     2.583807    -0.313073
Li     1.140996     1.813406    -1.005153
Li     2.405394    -0.608134     0.903842
Li    -0.609976    -0.269882     1.067107
Li    -1.029808    -1.821220     1.411037
Li    -0.349365    -0.012196    -1.006525
Li    -1.428561    -0.596210    -1.055310
Li     0.343909    -1.350828     2.420662
Li     0.213356     1.291206    -1.045209
Li    -0.502794     2.419831     1.940838
Li    -1.682352     0.049324    -2.904188
Li     2.481855     0.614652     0.981399
Li    -0.262814    -1.502695    -2.359427
Li     2.018411     1.559571     1.349645
Li     0.152963     1.786681     2.527280
