412

Li     0.321394    -0.257207     0.567316
Li     0.317289    -0.254270     1.590418
Li     0.601788    -1.129824     1.020991
Li    -0.422235    -0.794492     1.022201
Li    -0.420759     0.282208     1.023433
Li     0.602850     0.616061     1.022284
Li     1.237741    -0.254612     1.021423
Li     0.037332    -1.127598     0.107132
Li    -0.592297    -0.254935     0.106730
Li     0.037055     0.611189     0.106836
Li     1.061542     0.281893     0.107562
Li     1.061135    -0.794438     0.105564
Li     0.318503    -0.254997    -0.456023
Li     0.311816    -0.250370     2.637017
Li     0.887780     1.512778     1.482463
Li     2.175126    -0.251021     1.484296
Li     0.887712    -2.022688     1.483442
Li    -1.187119    -1.342283     1.482417
Li    -1.182327     0.835752     1.484447
Li     1.814960     0.834839    -0.366777
Li     1.815301    -1.342019    -0.372642
Li    -0.256039    -2.014899    -0.368064
Li    -1.524727    -0.249999    -0.367236
Li    -0.255504     1.496587    -0.367218
Li     0.311985    -0.249918    -1.502101
Li     0.604258     0.642213     2.078916
Li     1.254816    -0.250813     2.078442
Li     0.603420    -1.147246     2.078055
Li    -0.446733    -0.804044     2.078842
Li    -0.444996     0.299812     2.080272
Li     1.547004     0.642003     1.496307
Li     1.546272    -1.147591     1.495358
Li    -0.155436    -1.700763     1.495819
Li    -1.200471    -0.252865     1.497034
Li    -0.152536     1.189088     1.497013
Li     1.365916     1.188867     0.558911
Li     0.316506     1.520953     0.557910
Li     2.017247     0.298974     0.559000
Li     2.016874    -0.804303     0.556450
Li     1.365499    -1.700669     0.556063
Li     0.315991    -2.042255     0.557887
Li    -0.731221    -1.696923     0.558569
Li    -1.371309    -0.801346     0.557933
Li    -1.370054     0.297128     0.558315
Li    -0.728014     1.180606     0.558343
Li     1.834374    -0.252945    -0.378022
Li     0.785136    -1.696765    -0.378352
Li    -0.902914    -1.140538    -0.375961
Li    -0.903980     0.633340    -0.375804
Li     0.783350     1.180092    -0.375606
Li     1.070327     0.296887    -0.949505
Li     1.070956    -0.801065    -0.950988
Li     0.026201    -1.140499    -0.949997
Li    -0.616419    -0.251654    -0.950871
Li     0.026340     0.633193    -0.950767
Li     0.307289    -0.247184     3.707930
Li     1.174331     2.432384     1.945262
Li     3.131042    -0.248057     1.957390
Li     1.179987    -2.932898     1.956202
Li    -1.973301    -1.898714     1.945292
Li    -1.962623     1.402921     1.946672
Li     2.578303     1.400410    -0.855536
Li     2.581290    -1.898181    -0.868623
Li    -0.559399    -2.915372    -0.859404
Li    -2.473940    -0.244418    -0.850544
Li    -0.553899     2.397676    -0.850643
Li     0.304512    -0.244165    -2.567302
Li     0.602050     0.657257     3.145302
Li     1.260513    -0.247123     3.145981
Li     0.601566    -1.153902     3.145637
Li    -0.461808    -0.806722     3.145229
Li    -0.460172     0.310771     3.146176
Li     0.893014     1.556122     2.556277
Li     2.207142    -0.247390     2.560659
Li     0.894131    -2.054277     2.559891
Li    -1.226786    -1.360855     2.556241
Li    -1.221876     0.864497     2.557557
Li     1.563884     0.664124     2.577297
Li     1.563999    -1.160540     2.577904
Li    -0.171329    -1.723750     2.576851
Li    -1.237994    -0.248274     2.576378
Li    -0.168558     1.223352     2.576356
Li     1.845860     1.555877     1.967622
Li     2.501808    -1.154347     1.971190
Li     0.125345    -2.613464     1.970399
Li    -1.988167    -0.800394     1.965919
Li    -0.924852     1.763838     1.966080
Li     2.501614     0.656622     1.971283
Li     1.847672    -2.054463     1.970800
Li    -0.932306    -2.267087     1.967223
Li    -1.985534     0.304384     1.966163
Li     0.125116     2.107431     1.965740
Li     2.338282     1.222590     1.027757
Li     2.339503    -1.723741     1.025692
Li    -0.463093    -2.632571     1.026915
Li    -2.170352    -0.247559     1.022217
Li    -0.456769     2.110019     1.022055
Li     1.661931     2.107087     1.016355
Li     0.599691     2.437397     1.014599
Li     2.977139     0.309529     1.022498
Li     2.977076    -0.807149     1.020209
Li     1.664582    -2.613296     1.019452
Li     0.602210    -2.958621     1.020893
Li    -1.513196    -2.261868     1.016229
Li    -2.155607    -1.353273     1.014938
Li    -2.150283     0.858173     1.015185
Li    -1.502412     1.749593     1.015186
Li     2.131573     1.763524     0.077818
Li     0.020853     2.427302     0.078368
Li     2.792156     0.862614     0.078965
Li     2.793354    -1.360777     0.072537
Li     2.134982    -2.266729     0.072202
Li     0.018780    -2.953473     0.076469
Li    -1.040959    -2.602253     0.077407
Li    -2.324759    -0.799770     0.078659
Li    -2.322918     0.307594     0.078362
Li    -1.032100     2.083713     0.078338
Li     1.078220     2.109555     0.073365
Li     2.816284    -0.248787     0.071696
Li     1.084238    -2.632378     0.070886
Li    -1.695980    -1.707350     0.073614
Li    -1.693347     1.207131     0.074176
Li     2.605699     0.304241    -0.870414
Li     1.544575    -2.261380    -0.873013
Li    -1.210324    -2.034494    -0.864517
Li    -1.852703     0.646604    -0.861854
Li     0.490730     2.083122    -0.863019
Li     2.606448    -0.800063    -0.872650
Li     0.493764    -2.602019    -0.870822
Li    -1.852247    -1.140905    -0.862904
Li    -1.209624     1.531611    -0.861819
Li     1.538530     1.747836    -0.863876
Li     1.067549     0.307897    -2.016546
Li     1.069173    -0.799093    -2.018137
Li     0.015633    -1.140728    -2.016926
Li    -0.632054    -0.245905    -2.016840
Li     0.015924     0.646496    -2.016803
Li     1.827689     0.857904    -1.442148
Li     1.831028    -1.352419    -1.447983
Li    -0.272831    -2.034403    -1.443700
Li    -1.562697    -0.245903    -1.441804
Li    -0.271607     1.531403    -1.441798
Li     1.843868    -0.246911    -1.457854
Li     0.783442    -1.706898    -1.458178
Li    -0.928224    -1.147539    -1.455915
Li    -0.927626     0.650368    -1.454283
Li     0.781691     1.206648    -1.455645
Li     0.601871     0.669326     4.232105
Li     1.266419    -0.245132     4.234134
Li     0.601393    -1.160385     4.233791
Li    -0.473381    -0.810421     4.232049
Li    -0.471868     0.319170     4.232368
Li     0.896560     1.583772     3.643181
Li     2.226702    -0.245165     3.650115
Li     0.897925    -2.073707     3.649395
Li    -1.252043    -1.372968     3.643140
Li    -1.248353     0.883664     3.642913
Li     1.574600     0.677982     3.666564
Li     1.574791    -1.168496     3.668148
Li    -0.181327    -1.738375     3.666131
Li    -1.263446    -0.245100     3.663662
Li    -0.179568     1.246495     3.663633
Li     1.185301     2.490830     3.035316
Li     3.176780    -0.245650     3.052287
Li     1.191769    -2.977229     3.051198
Li    -2.025521    -1.927502     3.035322
Li    -2.017322     1.442659     3.033456
Li     1.868302     1.592581     3.068980
Li     2.535006    -1.168262     3.074844
Li     0.115692    -2.650817     3.072878
Li    -2.040787    -0.806074     3.063612
Li    -0.954435     1.809709     3.063365
Li     2.534109     0.677214     3.073711
Li     1.871072    -2.081897     3.074474
Li    -0.960397    -2.299981     3.068568
Li    -2.038261     0.318270     3.063443
Li     0.114079     2.159246     3.063446
Li     2.144281     2.490501     2.442992
Li     3.474100    -1.160970     2.457461
Li     0.414123    -3.540991     2.455629
Li    -2.793519    -1.354684     2.435643
Li    -1.712207     2.350378     2.434924
Li     2.816448     1.582873     2.457171
Li     2.820522    -2.073809     2.461704
Li    -0.658358    -3.198852     2.456374
Li    -2.801118    -0.242507     2.439689
Li    -0.656421     2.708522     2.439392
Li     3.472849     0.668246     2.456798
Li     2.154110    -2.977317     2.456712
Li    -1.729110    -2.839475     2.442610
Li    -2.786459     0.872290     2.435023
Li     0.403705     3.044705     2.435218
Li     3.125368     1.809038     0.542660
Li     3.132524    -2.299648     0.540186
Li    -0.776973    -3.562421     0.541822
Li    -3.140401    -0.241387     0.536257
Li    -0.761930     3.030770     0.535964
Li     2.648486     2.158356     1.497883
Li     3.318353    -1.737811     1.504599
Li    -0.182348    -3.569312     1.503606
Li    -2.971180    -0.799741     1.480545
Li    -1.237370     2.695002     1.480371
Li     3.315657     1.244728     1.504775
Li     2.655025    -2.650592     1.504222
Li    -1.257248    -3.216407     1.497302
Li    -2.967716     0.314484     1.480569
Li    -0.178448     3.042276     1.480060
Li     1.958089     3.044089     1.475097
Li     0.882394     3.370390     1.470440
Li     3.952972     0.317998     1.497183
Li     3.953249    -0.810870     1.495767
Li     1.969491    -3.540793     1.494701
Li     0.895478    -3.889340     1.495373
Li    -2.313106    -2.832846     1.475085
Li    -2.955845    -1.909825     1.471168
Li    -2.943610     1.425683     1.471364
Li    -2.286986     2.329087     1.471387
Li     2.435481     2.707982     0.528626
Li     0.301000     3.360981     0.529906
Li     3.774996     0.881414     0.541297
Li     3.776598    -1.372963     0.536692
Li     2.450004    -3.198466     0.535971
Li     0.304256    -3.893899     0.538328
Li    -1.845461    -3.183107     0.528878
Li    -3.126496    -1.354041     0.530627
Li    -3.119245     0.872341     0.530802
Li    -1.814955     2.666880     0.530782
Li     1.364858     3.041564     0.525859
Li     3.799866    -0.245902     0.536274
Li     1.385105    -3.569092     0.535160
Li    -2.494250    -2.267325     0.526920
Li    -2.482578     1.780834     0.529195
Li     2.902661     2.351776    -0.418420
Li    -0.279820     3.343382    -0.408761
Li     3.575413     1.438076    -0.415040
Li     3.579415    -1.927171    -0.427328
Li     2.916782    -2.838918    -0.427713
Li    -0.289158    -3.875398    -0.422235
Li    -1.359972    -3.517308    -0.417318
Li    -3.288994    -0.796643    -0.408356
Li    -3.286151     0.316154    -0.408193
Li    -1.337655     2.997226    -0.408243
Li     1.837889     2.693505    -0.421593
Li     3.609994     0.317304    -0.426592
Li     1.860418    -3.215925    -0.428986
Li    -2.017317    -2.610142    -0.419844
Li    -2.658159     1.224183    -0.414420
Li     0.780842     3.030057    -0.417973
Li     3.611531    -0.806088    -0.428229
Li     0.791164    -3.562190    -0.427067
Li    -2.663635    -1.708550    -0.417103
Li    -2.007507     2.119530    -0.414387
Li     3.383292     0.872462    -1.379641
Li     2.313044    -2.831999    -1.383246
Li    -1.526465    -2.935410    -1.362486
Li    -2.811848     0.657127    -1.351646
Li     0.192620     2.996520    -1.354387
Li     3.393903    -0.241949    -1.388136
Li     1.257704    -3.182511    -1.388426
Li    -2.173194    -2.039057    -1.361034
Li    -2.169694     1.553067    -1.355346
Li     1.246243     2.664853    -1.361555
Li     3.387000    -1.354000    -1.382604
Li     0.194375    -3.517044    -1.377632
Li    -2.813166    -1.139439    -1.354046
Li    -1.515922     2.440616    -1.351575
Li     2.297462     2.321860    -1.362119
Li     1.063352     0.316749    -3.095682
Li     1.065094    -0.795777    -3.098350
Li     0.006396    -1.139168    -3.096060
Li    -0.644726    -0.240550    -3.093782
Li     0.006808     0.657058    -3.093838
Li     1.828299     0.873495    -2.525570
Li     1.832539    -1.352639    -2.532933
Li    -0.285891    -2.038842    -2.526991
Li    -1.586699    -0.241124    -2.521208
Li    -0.284106     1.552786    -2.521287
Li     1.843340    -0.239966    -2.542802
Li     0.777772    -1.707831    -2.543129
Li    -0.945897    -1.147598    -2.537370
Li    -0.944708     0.662624    -2.534499
Li     0.775915     1.223928    -2.537284
Li     2.588191     1.427090    -1.943540
Li     2.597500    -1.908328    -1.959549
Li    -0.576356    -2.935313    -1.949418
Li    -2.520164    -0.240535    -1.934947
Li    -0.572649     2.440386    -1.935045
Li     2.610144     0.316716    -1.966005
Li     1.546413    -2.266308    -1.969340
Li    -1.238549    -2.047624    -1.958553
Li    -1.886123     0.662718    -1.952622
Li     0.485114     2.118901    -1.955739
Li     2.612371    -0.797992    -1.969014
Li     0.486271    -2.609623    -1.966501
Li    -1.887463    -1.147626    -1.955631
Li    -1.235692     1.558148    -1.952593
Li     1.540753     1.779941    -1.958390
Li     1.460961     3.388413     2.408467
Li     4.115341    -0.246362     2.446722
Li     1.482255    -3.869687     2.445265
Li    -2.794143    -2.466553     2.408500
Li    -2.775033     1.993406     2.401074
Li     3.355628     1.980580    -1.359741
Li     3.362949    -2.465835    -1.395415
Li    -0.882715    -3.829996    -1.382985
Li    -3.439105    -0.239304    -1.341086
Li    -0.856883     3.314073    -1.341205
Li     0.297618    -0.239005    -3.649973
Li    -4.432824    -0.235246    -1.844266
Li    -1.167815     4.258047    -1.844293
Li     0.292137    -0.235080    -4.763896
Li    -4.121503    -0.236351     0.048582
Li    -1.069636     3.962356     0.048268
Li    -3.961086    -0.798344     0.995216
Li    -1.551946     3.633010     0.994933
Li    -3.957055     0.324277     0.995191
Li    -0.485122     3.983361     0.994549
Li    -3.786927    -1.361089     1.944775
Li    -2.029112     3.291151     1.944159
Li    -3.793154    -0.238753     1.945139
Li    -0.965550     3.651057     1.944617
Li    -3.779116     0.883844     1.944298
Li     0.104022     3.991630     1.943858
Li     0.585233     4.311688     0.988150
Li    -3.943207    -1.917482     0.989264
Li    -3.928708     1.446426     0.991235
Li    -2.610721     3.259684     0.991290
Li     1.654956     3.990426     0.984694
Li    -3.307716    -2.835754     0.986574
Li    -3.282540     2.362342     0.995883
Li    -0.000100     4.297601     0.042272
Li    -4.110374    -1.356888     0.043006
Li    -4.101781     0.885820     0.044838
Li    -2.131122     3.597266     0.044856
Li     2.133088     3.649105     0.027566
Li    -2.835541    -3.185526     0.030367
Li    -3.465759     1.804619     0.041760
Li     1.068662     3.982493     0.033639
Li    -3.480900    -2.275989     0.035071
Li    -2.808754     2.708655     0.041819
Li    -0.583683     4.277235    -0.900514
Li    -4.270984    -0.796149    -0.900187
Li    -4.267450     0.324681    -0.898923
Li    -1.648840     3.927938    -0.898917
Li     2.605473     3.288318    -0.924864
Li    -2.346163    -3.525717    -0.921019
Li    -3.634061     1.239468    -0.905537
Li     1.544993     3.631248    -0.920692
Li    -2.999912    -2.621147    -0.918713
Li    -2.986837     2.147113    -0.908537
Li     0.482441     3.961626    -0.911430
Li    -3.641778    -1.712624    -0.910684
Li    -2.323444     3.043030    -0.905429
Li    -3.788010     0.668722    -1.848546
Li    -0.107163     3.927377    -1.852331
Li    -2.499290    -2.952467    -1.867158
Li    -3.143155     1.572660    -1.853475
Li     0.952338     3.595851    -1.862029
Li    -3.148506    -2.047813    -1.861427
Li    -2.489085     2.472867    -1.853394
Li     2.010599     3.255795    -1.868367
Li    -3.790833    -1.142078    -1.852022
Li    -1.828536     3.365483    -1.848387
Li     3.068421     2.912176    -1.871011
Li     1.063320     0.325095    -4.193066
Li     1.064541    -0.795364    -4.196635
Li    -0.001513    -1.141818    -4.193212
Li    -0.658048    -0.236772    -4.189114
Li    -0.001024     0.668586    -4.189299
Li     1.832689     0.886454    -3.622578
Li     1.836690    -1.355408    -3.630963
Li    -0.296920    -2.047555    -3.623115
Li    -1.608358    -0.237606    -3.614652
Li    -0.294560     1.572315    -3.614861
Li     1.846047    -0.235069    -3.638397
Li     0.774064    -1.711808    -3.638728
Li    -0.961069    -1.149724    -3.629870
Li    -0.959864     0.673487    -3.626286
Li     0.772940     1.239236    -3.630080
Li     2.598295     1.447063    -3.043680
Li     2.608531    -1.915389    -3.058079
Li    -0.592222    -2.952277    -3.045209
Li    -2.554954    -0.237541    -3.029745
Li    -0.587061     2.472510    -3.029922
Li     2.618655     0.326862    -3.067851
Li     1.548253    -2.274630    -3.071763
Li    -1.259699    -2.058558    -3.055913
Li    -1.913017     0.675125    -3.048665
Li     0.480325     2.146535    -3.052809
Li     2.621312    -0.796084    -3.071405
Li     0.479992    -2.620431    -3.068455
Li    -1.914708    -1.152367    -3.052541
Li    -1.256271     1.579583    -3.048667
Li     1.543633     1.803983    -3.056535
Li     3.363036     2.005446    -2.460225
Li    -3.493809    -0.236679    -2.436877
Li    -0.877268     3.365301    -2.436992
Li     3.385555     0.887462    -2.484930
Li     2.321858    -2.834109    -2.491337
Li    -1.551584    -2.964601    -2.465565
Li    -2.855846     0.673681    -2.454427
Li     0.187025     3.042452    -2.458366
Li     3.395141    -0.235138    -2.496355
Li     1.255478    -3.184432    -2.496920
Li    -2.210441    -2.058580    -2.468551
Li    -2.206963     1.579755    -2.460839
Li     1.249948     2.707839    -2.469214
Li     3.392791    -1.358159    -2.490697
Li     0.185714    -3.525172    -2.484975
Li    -2.857715    -1.149724    -2.458039
Li    -1.545894     2.477032    -2.454354
Li     2.307957     2.360695    -2.468526
412

Li     0.540775     3.517918     1.936311
Li    -1.827267     1.408522     3.798257
Li    -0.406269     3.538027     2.374183
Li     1.755519     0.240821     0.584242
Li    -0.219987    -1.899002     0.557556
Li    -0.872890    -3.631136    -1.325904
Li    -0.172874     0.107534     2.288709
Li     3.273059    -2.307501     1.268972
Li    -1.071252     0.737063     1.879474
Li     3.854956    -0.286196    -1.374331
Li     0.047402    -1.694153     1.512359
Li    -0.883647     2.653110     0.000998
Li    -3.470631     0.685765    -2.152163
Li     2.639587    -0.063970     0.378047
Li    -2.323888     2.178637     2.668395
Li    -0.600235    -0.213396    -2.966324
Li    -3.465243    -1.313341    -1.601033
Li     0.486041     2.774389     2.602623
Li    -0.495804     2.378191    -2.249752
Li     2.867645    -1.266505     1.083028
Li    -1.475450     1.576160    -3.633447
Li    -1.108918     3.097635     1.589092
Li    -2.214975     0.010669     2.473465
Li     0.160337    -2.723857    -2.488136
Li    -2.743725    -0.252551     1.307366
Li     0.660114    -0.922497    -1.656201
Li     1.334869     0.965889     4.178689
Li     1.761970     1.384108    -1.109361
Li    -0.658548    -1.030399     1.663304
Li     0.132030     1.482376     0.136353
Li    -3.365369     1.461301     0.582816
Li    -1.949510    -0.994087     2.303453
Li     2.703798     1.228503    -1.091090
Li     1.735618     1.969370    -0.098123
Li     0.740090    -2.438244     1.042812
Li    -2.332878    -2.455315    -2.171527
Li     1.217697     3.065412    -3.036243
Li    -2.313934    -2.349858     1.485101
Li    -2.720549    -1.707442     0.127757
Li    -3.145059     1.569729    -1.185692
Li    -0.045045     1.317132    -0.637297
Li     4.424332    -1.048136    -0.318859
Li     3.424210     3.177847     0.130172
Li     0.931254    -3.297729     0.133076
Li     0.336947    -3.870434    -0.864374
Li     1.209572    -2.553318     1.850441
Li    -0.220951     2.879771     1.621867
Li     1.521423     2.519580    -1.740179
Li     1.604270    -1.477101     2.391927
Li    -0.586675    -3.286035    -2.481284
Li     1.461940     2.865766     2.276483
Li     3.529258    -0.395093     1.462745
Li     0.746515     2.770006     1.084761
Li    -1.783097     2.297072     1.911028
Li    -2.626666     1.202650    -2.187972
Li     1.770959     1.029943    -2.846336
Li     1.879162     1.316734     3.074592
Li     0.355246     1.716148     3.804672
Li    -1.530124    -0.008161    -2.184268
Li     0.369164    -3.568356    -2.232009
Li     1.324390    -3.788554    -1.541867
Li     1.869118     0.096053     4.079078
Li    -2.918442    -1.466324     2.157754
Li     1.162760    -2.718064    -1.938644
Li    -1.357380    -1.698330     1.605723
Li     2.158607     2.490714    -2.562914
Li    -0.129910    -2.895658    -1.378622
Li     0.154586    -1.938190    -3.144134
Li     2.463679     3.268502    -1.500808
Li     3.525091     0.662445    -1.087797
Li     1.559339     3.801702    -0.987537
Li    -1.936365     0.084158     0.406115
Li    -3.748719     1.141310     1.589646
Li     0.398954    -0.225911     0.125990
Li     2.534620    -1.844202    -0.640048
Li     3.159540     0.478860    -0.169815
Li    -0.773323     3.541008    -2.380883
Li    -1.333773    -0.465576    -3.884634
Li     2.419541     0.353275     3.321158
Li    -2.591735    -3.060121     0.669768
Li    -0.562209    -1.811504     2.249963
Li    -2.143056    -2.006063     2.669727
Li    -3.504985     1.794732    -0.073533
Li    -3.816757    -0.098917    -1.410397
Li     2.755537     0.042250    -1.372870
Li    -1.743737    -3.257769    -2.194181
Li     1.864099     1.954546     2.333539
Li    -2.430599    -1.771739    -1.754454
Li    -0.192418     1.903161     2.975059
Li     1.678570    -2.473115    -1.317998
Li    -2.275221     2.208304    -1.724183
Li     1.858587     2.903239     0.717652
Li    -1.727782    -0.522630     3.114618
Li     0.496395    -0.015772    -2.838070
Li     2.000707    -1.827523     1.297641
Li     0.331773    -0.513171     2.028509
Li    -1.606648     0.667243     2.872573
Li     1.654168     1.392879     0.583586
Li     3.105038    -0.807275    -1.950434
Li     1.172670    -1.608945     3.439106
Li     2.570468     1.970027    -0.878660
Li     0.419901     3.755220     0.598427
Li    -0.449130    -3.396931     1.893619
Li     3.839717    -1.835745     0.885921
Li    -2.752026     0.308689    -2.108883
Li    -1.997567     3.178175    -0.137672
Li     0.897929     0.458544     0.371160
Li    -1.373997     1.636920     2.587358
Li    -0.393427     2.760370     3.543372
Li     0.013023    -2.955189    -0.453885
Li     2.676493     3.660116    -0.332071
Li     1.556377    -0.721445     0.016400
Li     1.903032    -3.747519     0.068467
Li    -2.594343     0.975575     3.030831
Li    -3.545115    -0.398496    -2.462839
Li    -0.245795    -1.952296    -0.794356
Li     1.566920     1.031823    -1.856468
Li    -2.261947    -1.314847     1.298425
Li    -3.852183    -0.474261     0.249732
Li    -3.703070    -3.098138    -0.973244
Li     3.713548     0.368602     0.810762
Li     2.741342    -2.215971     0.467722
Li     2.465984    -0.086834     1.478229
Li    -0.940412     0.442452    -1.986044
Li    -0.905974     2.752063    -1.068029
Li    -1.338005    -0.002503     2.237961
Li     1.463661     2.180322     1.420365
Li     2.848820    -2.031285    -1.896064
Li    -1.703189    -3.192539     1.182478
Li    -1.020640     0.554834     3.970012
Li    -1.584206    -1.002056    -1.274192
Li    -0.948724     1.978204    -0.566088
Li    -3.255806    -0.047889    -0.283828
Li    -1.373526    -1.014240    -0.396549
Li     1.877830    -0.420527     2.787000
Li    -3.351140     0.744841    -0.495404
Li    -3.286823     0.614503     2.306183
Li     1.664881    -1.477817    -0.547055
Li    -1.403150    -1.184088    -3.075318
Li    -3.797048    -1.433503     0.113606
Li    -2.234454    -0.918300    -2.183717
Li     0.865165    -2.666556     2.687403
Li     1.936640    -3.483429    -0.958694
Li    -0.195992     4.117465    -0.878375
Li     0.285975    -4.212715     1.284770
Li     3.724985     2.374133    -0.155159
Li     1.557996    -1.507184    -3.075732
Li    -2.954541     1.724933     2.383659
Li    -2.376063    -1.768610    -3.143765
Li     1.594033     3.433907     1.237792
Li    -0.266674     3.336700    -1.796434
Li     2.808556    -0.382280    -2.979795
Li    -0.863551    -0.352243    -1.259266
Li     2.101996     2.742569     1.449620
Li    -1.109992    -2.825722     2.207274
Li     1.266123     1.444515     2.312505
Li     1.293554    -1.601264     1.332677
Li    -0.367559    -2.839396    -3.532912
Li     3.121308     0.759941    -2.833556
Li     0.939187     1.156917    -2.861957
Li    -3.520175     2.326324     1.288131
Li    -0.031726     1.058124     2.099046
Li    -1.032071     0.476160     0.463999
Li    -0.296640     0.759259    -3.198357
Li    -1.109350    -1.748487    -3.647214
Li    -0.366345     3.982513     1.215188
Li    -3.256067    -1.678167    -2.322872
Li     3.404893     1.677221     0.617889
Li     3.850347    -0.748765     0.556262
Li    -3.061102     0.719895    -1.259265
Li    -2.915984    -0.714168     0.529468
Li     0.751794    -0.100797     4.006054
Li     1.873994     0.227075    -1.073793
Li     0.969168     0.567197    -1.354275
Li    -1.673117    -2.545294    -1.431490
Li     1.587583    -1.900783     0.533200
Li    -2.782817     1.593370    -0.025345
Li    -0.494810     1.409826    -1.721350
Li    -2.092098     2.765805     1.074067
Li     2.786753     0.806516     0.616218
Li     0.973022     2.155961     3.041549
Li     1.010061    -4.334390     0.918877
Li    -3.068583     2.304435     0.340434
Li     0.194524     0.678090    -0.221516
Li     2.848684     2.329953    -1.798076
Li    -0.293029     3.142295     0.680493
Li    -0.917943    -1.896152    -0.027926
Li    -0.913006     1.849266     0.291509
Li    -3.062502     2.620041    -0.532157
Li     0.956896    -2.691019    -3.175453
Li    -0.927070    -3.726552    -0.185155
Li    -1.273947     2.333159    -3.187685
Li     2.766974    -0.437103     3.968571
Li    -1.260575     2.498817     3.634265
Li    -0.576473    -0.207511    -0.632564
Li     1.337305    -0.613464    -1.090500
Li    -0.286428    -1.820153    -1.608930
Li    -2.091554     0.136192    -1.268273
Li    -0.883840    -1.063988     3.550574
Li     1.296279     0.348565    -0.539639
Li     3.079290     0.693717     1.466576
Li     0.826151    -3.265860     1.197200
Li    -2.841021    -1.201659     3.006632
Li    -1.963796     0.404974     3.925257
Li     1.221966    -0.713300    -2.500653
Li     1.647760     0.095079    -2.705199
Li    -0.875034    -1.810152    -1.123923
Li     0.995087    -4.228659     1.912564
Li     1.922533    -3.558590     1.162687
Li     0.504055    -1.779423     2.241467
Li     1.024846     0.007898    -1.899900
Li     2.775416    -2.774222    -1.351435
Li    -3.887249     0.833250    -1.213604
Li     0.207716    -2.897278     0.915974
Li     0.037112    -2.399949     1.866193
Li    -0.392543     4.237770     0.218604
Li     2.075789     0.190587    -3.767507
Li     1.132952    -4.096433    -0.305678
Li    -1.318310     0.747459    -2.958524
Li    -0.175732    -1.251626    -0.098726
Li    -2.336708     0.773416    -3.043154
Li     0.152991     1.183339    -4.129496
Li     0.643026    -0.967241    -3.458713
Li     2.865059    -1.934915     2.555996
Li     0.391584     3.919316    -0.541944
Li    -1.036699    -1.141346     2.861221
Li    -2.696143    -2.346247    -0.728591
Li     1.339117     0.331325     1.372522
Li    -2.778751     2.633423     2.143957
Li     2.439966     2.534204    -0.129679
Li     0.446526     0.195820     1.411563
Li    -0.892337    -0.889607    -2.009155
Li    -2.333504     1.453905    -1.265220
Li    -1.107633    -1.995917     3.333477
Li     1.064547     2.361201    -0.694129
Li     1.970936    -3.354433    -1.847787
Li    -1.662281     1.914603     0.489424
Li     1.621602     2.979652    -0.482863
Li    -0.241803    -0.765817     2.812629
Li    -0.278222     4.227580    -2.002399
Li     3.961668     0.083147    -0.293442
Li     0.463564     3.594858    -2.724293
Li    -1.754159     1.012410    -2.084240
Li    -1.254211    -0.354985     4.262009
Li     0.929863    -2.326653    -0.027110
Li    -0.742622     1.677596     3.654171
Li     0.886404     1.104999    -0.317657
Li    -0.572262    -1.076636    -3.335156
Li     0.841063     1.864493     0.259435
Li     2.218681    -1.083741    -2.452629
Li     0.781288     0.305767     2.434615
Li    -0.651839     2.787370     2.713682
Li     1.077384    -2.864957    -0.948554
Li     1.354331    -0.545312     1.943272
Li    -2.964289     0.734375     1.465290
Li    -0.492041    -1.634543    -2.583939
Li    -1.861481    -0.981284    -3.797001
Li    -1.003813    -1.422957     0.925228
Li    -3.012602    -1.225459    -0.744200
Li    -1.897225     1.818263    -2.728589
Li     0.336757     2.008094     1.877904
Li     3.410487    -1.306870     2.039289
Li     2.009025     1.271248     1.590059
Li     1.759538    -2.254677    -2.334260
Li    -0.329206    -0.226849     4.307520
Li     0.007351     2.436970     0.051882
Li    -0.581211    -3.730291     0.686944
Li    -1.681211    -3.579131     0.401394
Li     3.386578     2.827950     1.104860
Li    -0.538246     1.956309     1.686852
Li     0.172180    -3.884167    -0.019330
Li    -0.157452    -2.998278     2.549354
Li     2.471674    -1.054890     1.843875
Li    -1.672492     2.834488     2.520768
Li     0.061352    -2.038942     3.168917
Li    -3.204307     0.057716    -3.092902
Li     3.516419    -2.453075    -0.647543
Li    -2.536851    -3.210006    -0.489933
Li     2.866303    -0.040399     2.420702
Li     1.472435    -1.616934    -1.881632
Li     2.900952     1.462411    -0.192434
Li    -3.392555    -0.984608     1.052792
Li    -1.750678     1.060922    -0.196427
Li     1.188507    -0.346731     1.103485
Li    -4.259698     0.205848    -0.604271
Li    -0.380473     0.636819     3.035082
Li    -1.533176    -3.558169    -1.028463
Li     3.136438     1.456203    -1.884539
Li     2.586729     0.612465    -2.097166
Li     2.331860     1.980356     0.618901
Li     1.800969     2.090861    -3.368039
Li    -1.185204    -0.508338     0.224695
Li    -3.906624     0.626988     0.503800
Li    -3.041410    -0.590753     2.290577
Li     2.247376     0.695396    -0.348252
Li    -0.921392    -0.198126     3.090191
Li     3.052389    -0.985345     2.724284
Li    -1.712292     2.320705    -0.579361
Li     0.424152     0.764288    -2.078549
Li     0.716869    -1.182522     0.429525
Li    -0.035404     0.436253    -1.297759
Li     2.051255     1.542872    -1.799076
Li     0.147081     2.556318    -3.031646
Li    -0.180131     0.433063     0.401988
Li     0.542872    -3.602691     2.073276
Li    -2.378434    -0.781591     4.162235
Li    -1.381705    -2.690593    -2.860743
Li    -0.635411     0.708462    -0.348216
Li    -0.163859     3.355716    -0.386686
Li    -1.290980     3.772134    -0.394061
Li     3.123459     2.994196    -0.834051
Li     0.195048     0.085836     3.354214
Li     2.930827     1.947958    -2.686358
Li    -1.463903     1.284943     1.213680
Li     1.636465    -3.443331     2.340129
Li     2.519248     1.332454     2.705262
Li     1.947265    -0.520798    -3.631186
Li     0.107104     2.566218    -1.237567
Li    -0.059281    -0.190411    -3.601336
Li    -2.133158     3.269358    -1.106766
Li     0.878611     1.498749    -1.562569
Li     0.549405     1.141073     2.962659
Li    -1.607700    -0.592893     1.258920
Li     3.599769     1.824329    -1.128257
Li     2.117976    -0.899325     1.047086
Li    -3.668093     0.121165     1.375701
Li    -2.163308     1.235570     1.961594
Li    -1.853660     0.510263     1.256808
Li     0.113834    -0.578991     0.796189
Li     1.306346    -0.815217     3.891153
Li    -1.334424    -0.021445    -0.463313
Li    -0.903638    -2.511690    -1.846314
Li     1.159019     0.054212     3.123386
Li    -2.401459     1.945020     1.233129
Li     1.657559    -2.876520     0.956690
Li    -1.978875     0.475324    -4.146754
Li     3.513833    -1.750897     0.131529
Li     0.695144     1.763415    -3.464718
Li    -2.854809    -0.718161    -1.467331
Li    -0.841066    -2.557808    -0.985506
Li    -0.578192     0.633670    -3.904552
Li    -4.129801    -0.744724    -0.399164
Li    -2.749769     0.041238     3.049819
Li    -1.201172     3.524438     0.742299
Li    -1.594143    -1.352524     3.418028
Li     3.341306    -1.560981    -0.928275
Li     0.740900     3.275177    -1.045561
Li     0.399035     2.495322    -2.270614
Li     3.395290     0.364728    -2.120199
Li    -0.343282     1.591467    -3.445651
Li    -3.168441     0.430686     0.584583
Li     0.909570     2.861779    -0.153154
Li    -3.003879    -0.953962    -3.239104
Li    -1.805914    -1.462560    -0.628094
Li     2.446526     3.506603     0.491978
Li     0.280351    -0.910005    -2.512063
Li    -1.468199     1.997476    -1.650958
Li     2.448468    -1.161770    -0.114707
Li     2.185367    -2.649511     1.798938
Li     0.208705    -1.064774     3.690481
Li     1.963430    -0.447519    -1.954408
Li    -1.604678    -1.135188     0.239765
Li     3.202819    -0.779476    -0.557656
Li     2.129189    -0.263331    -0.536646
Li    -1.086457     2.606148     0.913126
Li    -1.633896     2.800794    -1.966752
Li    -0.832058     1.447243    -2.576151
Li    -1.355036     0.834535    -1.258457
Li    -0.162455    -0.811870    -1.017029
Li    -1.879746    -2.523504    -0.112668
Li     1.666241    -2.576173     2.978889
Li    -2.248694    -0.120301    -3.083511
Li    -0.499187     1.182142     1.357651
Li    -1.503879    -2.265389     0.613517
Li    -0.091060     0.914319     3.884620
Li     1.434668     1.781762    -2.469911
Li    -0.547151    -2.194120     1.323863
Li     1.638909     3.744013     0.058219
Li    -0.969963     0.174799     1.213144
Li    -0.171526     1.884089     1.061226
Li     1.846360     0.497328     2.445506
Li     2.061817    -1.582608     3.398563
Li    -3.829660    -1.985663    -0.781042
Li    -1.532756    -1.617939    -2.132554
Li     0.529472    -1.275312    -0.783272
Li     1.068400    -0.615594     2.781065
Li     1.307779     3.474178    -2.018411
Li    -0.011847     1.614804    -2.700392
Li     3.048483     1.820661     1.708142
Li     0.672478    -1.689151    -2.397232
Li     2.607028    -1.072505    -1.051881
Li    -1.308189     3.830430    -1.630654
Li    -1.081438    -3.020475     0.472953
Li     3.004130    -3.110502    -0.233751
Li     0.918724    -1.950942    -1.429001
Li    -2.050379     1.121522     0.471918
Li    -3.355412    -2.325022    -1.780311
Li     0.538387     4.011144    -1.352136
Li    -2.628097     0.685948    -0.455718
Li    -2.200735    -0.485963    -0.450554
Li    -3.276715    -2.450272     0.206563
Li     0.581722    -0.442552    -1.169174
Li     3.586472    -2.434509     0.565413
Li     2.924284    -3.333448     0.994231
Li     3.883408     1.103708    -0.027669
Li    -3.024882    -1.930173     1.064036
Li     0.952874     0.045941    -3.807113
Li     0.598716     1.416316     1.126571
Li    -2.721361    -3.292323    -1.538693
Li     1.896332    -2.501921    -0.358372
Li    -0.009092    -0.196388    -1.917745
Li     1.256937     1.335002    -4.034672
