44

Li    -0.883015    -0.644837     1.726186
Li     1.292974    -4.341450     1.634678
Li     1.457074     1.022089     1.329422
Li    -1.233316    -1.445582    -0.953813
Li     0.778343    -0.838962    -1.737707
Li    -1.969715     0.188081     0.395117
Li     1.275648     1.168284    -0.888464
Li    -0.425213     1.806441     0.427089
Li    -0.827378     0.686244    -1.457573
Li     0.708397    -1.587827    -0.909178
Li    -0.304326    -1.892475    -0.511550
Li     1.851294     0.197823     0.673981
Li    -1.176146    -1.569733     0.157740
Li     1.500082    -0.758411    -0.880270
Li     0.459305     0.719093     1.750328
Li    -1.544698    -0.747350     0.835401
Li    -1.283739     0.290874     1.274177
Li     1.749567     0.253019    -0.443879
Li    -0.496310     1.098793     1.293481
Li     0.603612    -0.725927     1.092500
Li    -0.228965    -1.148221    -1.353321
Li     1.371171     1.099858     0.218908
Li     0.515719     1.419483     0.880434
Li     1.034409     0.165462    -1.317563
Li    -1.610373    -0.630503    -0.281256
Li    -1.202151     1.002713     0.414599
Li    -1.032678    -0.380246    -1.208545
Li    -2.386514    -7.651367    -1.602127
Li    -0.628099     1.250671    -0.517105
Li     0.224993     0.930232    -1.176865
Li    -1.402097     0.438371    -0.531058
Li     0.426119     1.493726    -0.232633
Li     0.397477    -1.307744     0.114637
Li    -0.462262    -0.992478     0.768946
Li     1.172686    -0.490030     0.139387
Li    -0.208103     4.025455     1.199670
Li     0.131344    -0.281151     0.242878
Li     0.778245     0.358966     0.770621
Li    -0.538452    -0.847364    -0.345537
Li     0.445911    -0.550600    -0.729086
Li    -0.897941    -4.953883     0.318471
Li     0.690099     0.432824    -0.315600
Li    -0.144429     0.746120     0.329394
Li    -0.341199     0.199486    -0.594917
44

Li     0.640618    -0.177166     1.277482
Li     0.755504     0.764000    -0.438243
Li    -0.434961     0.782161     1.692189
Li    -0.073197    -1.305692    -1.598193
Li    -4.690661     1.606502    -0.619902
Li    -0.306552     0.744547     0.758823
Li    -1.431971     0.248362     1.311918
Li     1.027087     1.572907     0.859372
Li     0.873983     0.245970    -1.435504
Li    -2.037151    -0.197082    -0.488172
Li    -1.870650     0.683044     0.244951
Li    -0.798257     0.857473    -0.088414
Li    -1.127651    -0.039388    -0.751760
Li     3.796777    -1.740687    -0.937644
Li     1.186515     1.670477    -0.533576
Li    -1.243927    -1.009916    -0.951181
Li    -1.038958     0.043284     0.174927
Li    -0.301724     1.473047     0.887993
Li     0.544311    -1.363585    -0.295610
Li    -0.115872     0.400159    -0.051927
Li    -3.125364     3.030060    -1.864356
Li     0.328395     0.921827     1.416807
Li    -0.007030    -1.178029     1.589023
Li    -0.560811    -0.541475    -1.796946
Li    -1.467974    -1.369412    -0.119394
Li    -8.042021     1.286669     0.875455
Li     0.611939     0.579319     0.513344
Li     0.781586    -0.407692    -0.187343
Li    -0.054594     0.833638    -1.035999
Li    -1.418100     1.168905     0.718138
Li     0.782738    -1.277171     0.705911
Li     1.739488     0.904737     0.199924
Li     0.199673     1.091701    -0.046601
Li     1.414640    -1.018206    -0.442835
Li     0.866285    -0.746434    -1.407787
Li     1.558572    -0.148161     0.265636
Li     1.413223    -0.049542    -0.605356
Li    -0.679655    -1.813396    -0.797889
Li    -0.234613    -0.297550     0.462950
Li    -1.102718    -0.979806     1.106595
Li    -2.056035    -0.399232     0.652635
Li     1.639014     0.552843     0.941473
Li    -0.227442    -1.650708     0.388256
Li     1.855743     0.943123    -0.989038
