53

Ar     -0.187682     -2.138574      0.417758
Ar      1.632751      0.494935     -1.368361
Ar     -1.657630     -1.034159     -0.894920
Ar      0.614100     -0.678913      1.944238
Ar      1.736367      0.944602      0.843125
Ar     -0.535363      0.589357     -1.996033
Ar     -1.548613     -0.580317      1.311722
Ar      0.263834      2.041641     -0.466562
Ar     -0.362526      1.319199      1.575578
Ar     -1.764389      1.099980     -0.176440
Ar      1.160290     -1.319728     -0.763267
Ar      1.050949     -0.460988     -1.516121
Ar      0.836218     -1.685499      0.274696
Ar      1.759234     -0.350229     -0.630922
Ar      0.127933     -1.796259     -0.610504
Ar     -0.616037     -1.236024     -1.274942
Ar      1.241926     -0.945482      1.047100
Ar      1.810650     -0.122744      0.489096
Ar     -0.047313     -0.413286     -1.832946
Ar      0.215542     -1.420024      1.190346
Ar     -0.929797     -1.599128     -0.241073
Ar      0.552973      0.545905     -1.695894
Ar      1.698312      0.725009     -0.264475
Ar      1.185353      0.133708      1.405269
Ar     -1.105505     -0.224529     -1.457795
Ar     -0.874366     -1.369114      0.870925
Ar      0.955032      1.277364     -0.923989
Ar     -1.615341     -0.813666      0.210137
Ar     -0.470927     -0.634707      1.640400
Ar      1.007883      1.504597      0.189465
Ar     -0.136531      1.325637     -1.240799
Ar      0.127070      0.323033      1.773210
Ar     -1.723923      0.033580     -0.540121
Ar     -1.159048      0.850751     -1.094350
Ar      0.691946      1.140204      1.218982
Ar     -1.669793      0.262105      0.572049
Ar     -0.963118      0.372612      1.455236
Ar     -0.049828      1.693813      0.559160
Ar     -0.756503      1.583306     -0.324027
Ar     -1.071983      1.219287      0.705177
Ar      0.047303     -0.053804     -0.031117
Ar      0.942068     -0.619951      0.046091
Ar      0.244012     -0.729111     -0.826324
Ar      0.825591      0.214863     -0.687475
Ar     -0.067503     -1.077122      0.188785
Ar      0.876692      0.437104      0.399144
Ar     -0.239831      0.262506     -0.996261
Ar      0.325626     -0.360090      0.939823
Ar     -0.790897     -0.534688     -0.455582
Ar     -0.738165     -0.310890      0.629536
Ar      0.152288      0.977274     -0.244132
Ar     -0.843931      0.514492     -0.101562
Ar     -0.155401      0.622162      0.758948
53

Ar      0.668029     -1.464564      1.240287
Ar     -1.162586     -0.429439     -0.073844
Ar      0.582668     -1.457626      0.071164
Ar      1.031321     -0.772904      1.763411
Ar      1.148111      1.271706      0.850554
Ar     -0.716870      0.609487      0.345851
Ar     -0.523090      0.362487     -0.799233
Ar      0.909950      0.402553      0.034080
Ar     -0.116237     -0.791643     -0.812022
Ar     -0.527195      1.563502     -1.012867
Ar      0.916317      0.548103      1.531727
Ar     -1.002772      1.893725      0.092394
Ar      0.283067      1.897945      0.508428
Ar     -0.906382      1.558857      0.913329
Ar     -0.648494     -0.503799     -1.568539
Ar      0.574327     -1.396026     -0.954723
Ar      1.471409      0.697143     -0.917653
Ar      1.420849      0.405971      0.842554
Ar      1.734171     -0.151848     -0.097760
Ar     -1.164975     -1.030754     -1.035968
Ar     -0.609010     -1.202528      1.346355
Ar     -1.302293      0.509000     -1.732235
Ar     -0.349104     -1.716536     -0.678194
Ar     -1.432204     -0.226654     -0.735321
Ar     -1.059323     -0.577918      1.910683
Ar      1.696698     -1.075747     -0.615837
Ar     -0.043622      2.162313     -0.663997
Ar      0.769444     -0.445293      0.778806
Ar     -0.075588      1.142218     -0.189733
Ar      0.443642      0.343734     -0.824934
Ar     -0.865763     -1.541211      0.099954
Ar      0.174595     -0.452646     -1.769281
Ar      0.997006      1.608621     -0.097273
Ar     -0.448774     -1.301988     -1.472229
Ar      0.563136      1.305583     -1.169177
Ar     -1.786976      0.135266      0.350970
Ar      0.186249      0.572326      0.740823
Ar      0.183013     -0.702135      1.755187
Ar     -0.595974     -0.042830      0.928132
Ar      0.986285     -0.524783     -0.086109
Ar     -0.075846     -1.862820      0.772160
Ar     -0.049750     -0.845058      0.183382
Ar     -0.173234      0.396690     -1.616590
Ar      1.251696     -0.463705     -1.038075
Ar      1.476955     -0.778835      0.472909
Ar     -0.142636      0.217575      0.162655
Ar      1.788511      1.139094      0.121727
Ar     -1.786104     -0.878454      0.056976
Ar     -0.355473      0.558499      1.962891
Ar      0.920042      0.560164     -1.928721
Ar     -1.621809      1.023362     -0.552902
Ar     -1.480612     -0.724156      1.077337
Ar     -1.383311      0.328695      1.070253
