201

Ag     14.531949     14.531639      4.269452
Ag     12.499917      6.375910     18.639095
Ag      8.412483     10.442802     18.691813
Ag     12.500174      4.417750     16.553478
Ag     20.582092     12.500090     16.553933
Ag     10.467880     14.532484     20.729425
Ag     10.467661     18.575791     16.579536
Ag     20.622310     14.480124     14.517526
Ag     20.622140     10.520013     14.517973
Ag     10.468594     14.531532      4.268668
Ag     10.442906      8.412713     18.691998
Ag      4.377515     14.479939     14.517009
Ag     14.531943      6.424393     16.580842
Ag      6.424171     10.468021     16.580397
Ag     12.500113      6.375842      6.361666
Ag     14.557439     16.587562     18.690828
Ag     14.479901      4.377283     10.483252
Ag      6.410146      8.445252     14.553616
Ag     14.532012      6.424150      8.420281
Ag     10.519885     20.622508     10.482213
Ag      8.444998      6.409707     10.446531
Ag     10.442881     16.587216      6.307814
Ag     18.589760      8.445325     14.554213
Ag     14.479919     20.622699     14.517157
Ag      6.424187     14.532068      8.418852
Ag      6.410454      6.410088     12.500232
Ag      8.445000     18.590341     14.553215
Ag     18.589524      6.410232     12.500443
Ag      6.375758     12.500035      6.360487
Ag     18.589678     16.554928     14.553533
Ag     16.546054      8.453872     16.585960
Ag      6.424306     10.467914      8.419269
Ag      6.410258     16.554832     10.446039
Ag     16.546320     16.546180     16.585030
Ag     14.532027     18.575883     16.579816
Ag     16.555200      6.409748     10.446760
Ag     12.499973      4.377204     12.500670
Ag     10.520017     20.622807     14.516956
Ag     14.480160      4.377455     14.517815
Ag     12.500333     12.499474      4.153044
Ag      8.444997     18.590254     10.445864
Ag     10.467963      6.424196      8.420108
Ag     12.500088     20.623129     12.499406
Ag     18.589702      8.445129     10.446819
Ag     10.442881      8.412441      6.308923
Ag     16.555156      6.410031     14.554159
Ag     14.532233     10.467670      4.270387
Ag     14.557271      8.412487      6.309236
Ag     18.589486     18.590019     12.499891
Ag      6.410189     16.554810     14.553118
Ag     16.555092     18.590264     14.553566
Ag     18.575829     14.531898      8.419375
Ag     10.468055     10.468317     20.730566
Ag      6.410517      8.445044     10.446444
Ag      8.453737      8.453805     16.585463
Ag     18.589812     16.554719     10.446374
Ag     18.624100     12.500228     18.639773
Ag     14.531491     14.532224     20.730198
Ag      8.412564     10.442715      6.308285
Ag     14.531184     10.468543     20.731512
Ag      4.377853     14.479995     10.481941
Ag     16.555156     18.590133     10.445956
Ag      4.377977     10.519742     10.482081
Ag     12.500002     18.624373     18.638105
Ag     16.587608     10.442648      6.308808
Ag      8.412243     14.557268     18.690911
Ag     10.442469     16.587434     18.690391
Ag     20.622073     10.520043     10.482693
Ag      4.376814     12.500124     12.499371
Ag     14.532028     18.575702      8.419474
Ag     16.587603     14.557043      6.308219
Ag      6.410446     18.590089     12.499399
Ag      6.375384     12.499982     18.638928
Ag     18.575540     10.468090     16.581322
Ag      8.444816      6.409863     14.553984
Ag      4.377562     10.520164     14.517255
Ag      8.453835      8.453736      8.414835
Ag     10.520151      4.377196     10.483243
Ag     20.623031     12.499960     12.500420
Ag     16.546349     16.546152      8.414621
Ag     20.622240     14.479888     10.482689
Ag     16.546237      8.453701      8.415121
Ag     18.624476     12.499844      6.360854
Ag     18.575869     10.467756      8.419588
Ag     10.519779      4.377374     14.517801
Ag     18.575743     14.532214     16.580860
Ag      6.424032     14.532000     16.580096
Ag      8.453766     16.546191      8.414459
Ag     16.587077     10.443096     18.692796
Ag     14.480072     20.622402     10.482079
Ag      8.412748     14.557153      6.307564
Ag     14.557485     16.587125      6.308245
Ag     14.557201      8.412900     18.692407
Ag     10.467873      6.424280     16.580738
Ag     12.499443     12.500967     20.846924
Ag     16.587321     14.557247     18.691916
Ag     10.468082     10.467948      4.269850
Ag     10.467902     18.575718      8.419178
Ag      8.453553     16.546155     16.584484
Ag     12.500162     18.623997      6.360830
Ag     16.547766     12.500467     20.647813
Ag     12.500201      8.451651      4.354044
Ag     16.548213     12.499768      4.353182
Ag     12.499740      8.451913     20.647368
Ag     20.585097     16.548661     12.500110
Ag     12.500034     20.582006      8.446279
Ag     12.499692     16.548471     20.645445
Ag     12.499911      4.417810      8.447282
Ag     16.548185     20.585379     12.499707
Ag     20.582177     12.499841      8.446611
Ag      4.417565     12.500168     16.553301
Ag      8.451519     20.585500     12.499530
Ag      4.415146     16.548682     12.499498
Ag     12.500277     16.548168      4.352985
Ag     12.499999     20.582042     16.553049
Ag      8.452044     12.500303     20.646628
Ag      4.417769     12.499920      8.446144
Ag     16.548303      4.414718     12.500531
Ag      8.451523      4.414539     12.500298
Ag     20.584906      8.451277     12.500450
Ag      8.451944     12.500032      4.352722
Ag      4.415144      8.451338     12.499939
Ag      6.438839     10.500488     12.499808
Ag     12.500157     16.541600     12.499770
Ag     18.561235     14.499651     12.500102
Ag     16.519748     16.519381     12.499775
Ag     10.495043     14.504701     16.666229
Ag      8.473537     12.500039     16.621640
Ag     10.493768     10.493674     12.500212
Ag     12.500030     12.499977     16.679489
Ag     10.499923      6.438716     12.500333
Ag     12.500099     12.499884     12.499905
Ag     14.506444     14.506229     12.500040
Ag     12.499994      8.458276     12.500452
Ag     14.506309     10.493767     12.500031
Ag     14.504977     10.495162      8.333698
Ag     14.500078      6.438740     12.500493
Ag     12.500131     12.500158      8.320549
Ag     10.500021     18.561208     12.499715
Ag     12.499951      8.473858     16.622074
Ag     16.541721     12.500029     12.500182
Ag     16.526488     12.499892      8.377958
Ag     12.499946     16.526158     16.621096
Ag     16.526262     12.500082     16.622437
Ag     10.493633     14.506247     12.499612
Ag      8.473807     12.499998      8.377680
Ag     10.495104     10.495170     16.666771
Ag     10.495289     14.504792      8.333094
Ag      6.438870     14.499675     12.499613
Ag     12.500022     16.526039      8.377932
Ag     14.505021     14.504744     16.666443
Ag     14.500075     18.561127     12.499698
Ag     14.504758     10.495147     16.667060
Ag     18.561061     10.500408     12.500419
Ag     16.519324      8.480759     12.500445
Ag     10.495146     10.495209      8.333405
Ag      8.480419     16.519408     12.499664
Ag      8.480661      8.480613     12.500191
Ag     14.505006     14.504718      8.333292
Ag     12.499982      8.473802      8.378944
Ag      8.458347     12.500135     12.499961
Pt     14.471746     12.500121     14.586279
Pt     16.485330     14.505455     10.422492
Pt     18.549016     12.500008     10.422303
Pt      8.514843     10.494379     14.577574
Pt      6.450979     12.500022     10.421767
Pt     12.499923     14.494684     18.778218
Pt     14.494714     12.500060      6.221277
Pt     14.494402     12.499954     18.779239
Pt     12.499892     10.528491     14.586417
Pt     12.499953      6.451000     10.422793
Pt     12.500253     14.471471     14.585789
Pt     10.494070     16.485032     10.422382
Pt     18.549011     12.500044     14.578346
Pt     10.494182     16.485115     14.576998
Pt     10.528577     12.499762     14.586070
Pt     10.505363     12.499912     18.778536
Pt     14.505974     16.485175     10.422496
Pt      6.450787     12.500057     14.577503
Pt     14.505843      8.514935     14.577738
Pt     12.499946     18.548973     10.421967
Pt     14.505914      8.514902     10.423111
Pt     10.494164      8.514940     10.422945
Pt     12.500032     14.494386      6.220872
Pt     12.499865     14.471445     10.413901
Pt     16.485120     14.505564     14.577547
Pt     12.499911     18.548984     14.577224
Pt     12.500063     10.505672     18.779233
Pt     16.485299     10.494441     14.577960
Pt     14.471498     12.499881     10.413927
Pt     10.494060      8.515061     14.577514
Pt      8.514683     14.505469     14.577200
Pt     12.499935     10.505414      6.221424
Pt     10.505420     12.500074      6.220973
Pt     12.500204     10.528590     10.414206
Pt     12.499915      6.451053     14.578231
Pt      8.514769     10.494463     10.422426
Pt      8.514927     14.505537     10.422251
Pt     16.485171     10.494309     10.422722
Pt     14.505942     16.485049     14.577054
Pt     10.528611     12.500282     10.413870
201

Ag     19.582767     -1.268000      8.074954
Pt     22.851046    -11.007815      7.614067
Ag     20.468713    -15.287797      7.525595
Ag     16.621548     -6.578597     -1.290146
Ag     22.267568    -11.669773     -1.102234
Pt     25.055190     -8.798770      3.687877
Ag     23.541337    -13.526953      0.787446
Pt     19.580514     -3.456600      3.606197
Pt     16.642672     -7.892644      6.280728
Ag     16.458504     -5.495195     10.505284
Ag     15.788174    -11.741582     12.021030
Ag     26.578349     -7.002697      2.494578
Pt     14.175845    -10.054754     10.308531
Ag     22.571632    -15.131154     10.814359
Ag     19.528240    -17.941363      5.865062
Pt     19.407566     -9.795636      2.535745
Ag     18.459255     -9.615745      5.184235
Pt     21.083422    -15.667479      4.756899
Ag     12.326364    -14.442401      9.695112
Ag     25.775410     -9.002994      1.148694
Ag     21.505494    -11.830479      1.570341
Ag     19.352397     -7.603921      6.990489
Ag     13.947545     -1.873346      6.609520
Ag     21.614958     -5.577293      2.810244
Ag     10.872500    -12.503227      7.700129
Ag     18.729130     -8.343553     -2.217145
Ag     14.437546    -10.857686     -1.786858
Ag     25.108070    -11.248545     -0.441738
Ag     22.484726    -13.494256      3.321967
Ag     15.947136     -7.728553      8.785528
Ag     20.288101     -1.189066      5.278986
Ag     24.579297    -10.406190     11.465283
Ag     14.211965    -14.622872      1.373691
Ag     13.754945     -8.339049      5.544178
Ag     14.875625     -2.043968      4.135568
Pt     18.478431    -13.576952      8.258840
Pt     16.257550    -14.236186      5.057344
Ag     21.968261     -4.805890     11.875497
Ag     23.177186     -3.353994      1.741568
Ag     15.714815    -12.502032      0.113437
Ag     15.451369    -14.048545      7.668040
Ag      9.492859    -10.908958      5.872480
Ag     17.422976     -7.962809      3.328807
Ag     11.962915     -8.902036      2.114718
Ag     11.542615    -10.513157      9.626177
Ag     16.812906     -4.188007      3.168999
Ag     21.937220    -10.745727     10.456951
Ag     21.821998    -17.272085      9.190199
Ag     20.503478    -13.104887     11.722341
Ag     17.799550    -11.926579      3.643531
Ag     17.499435    -18.402741      2.378979
Ag     20.901177     -2.973194      9.904161
Pt     17.845403    -15.710508      6.585745
Pt     18.782150    -12.249447      1.079066
Ag     24.406572     -7.214802     -0.807207
Pt     17.164301    -11.954335      6.261867
Pt     20.048559     -8.886887     11.461286
Ag     21.515170     -7.121393     10.147000
Ag     20.530270     -9.119649      8.735475
Ag     17.825163    -13.680197     10.954482
Ag     23.674976     -9.745614     -2.270164
Ag     26.041481    -10.708364      5.715207
Ag     18.442798     -1.936623      1.829598
Ag     17.790171     -7.278953     12.519128
Ag     14.830072    -13.782897     10.477195
Ag     20.646870     -9.886090     -3.092578
Ag     26.206386     -8.527550     10.221596
Ag     24.857716     -5.122365      0.868981
Ag     13.447443     -4.319517      5.056227
Ag     18.885042    -17.489071      8.569025
Ag     11.384581    -12.622296      5.059843
Pt     17.624464     -9.588962      8.177263
Pt     12.361877    -10.646256      6.915396
Ag     24.207811     -8.737018      6.740916
Ag     15.192011     -3.792723      8.592594
Ag     24.526466     -5.077124      3.498999
Ag     24.155100    -12.653161      9.533402
Ag     13.141124    -12.859594     -0.599527
Ag     14.963117    -16.504966      6.149880
Ag     14.095005    -16.119475      8.906614
Ag     22.207371     -9.427691      3.204220
Ag     24.932127     -6.615543      8.155208
Ag     19.232165     -9.022925     14.196194
Pt     17.399597     -5.625639      7.807555
Ag     23.400819    -15.066370      8.149595
Pt     23.707681     -7.418434      1.729450
Ag     13.033658    -10.442257      4.059378
Ag     17.914270    -10.645803     -3.920351
Ag     15.609877     -2.102770      1.102147
Ag     14.568776     -4.723083     -0.312884
Ag     12.507783     -6.495743      3.629089
Pt     13.836030    -10.637719      0.996777
Ag     25.610932     -6.805037      5.570034
Ag     18.802843     -3.678067      6.356459
Ag     11.261747     -6.158077      8.993464
Ag     13.926362     -4.557528      2.167623
Ag     19.750096    -15.454999     10.214620
Ag     17.616161     -1.675520      4.542475
Ag     20.705531     -6.921306     13.192670
Pt     22.922196     -9.431199      0.259162
Ag     11.792661     -6.532208      6.184468
Ag     16.288998    -17.937150      7.897130
Ag     21.079766    -13.088005      9.036440
Pt     21.247648     -9.281740      5.762527
Pt     17.977291     -7.971803      0.682835
Ag     17.597018     -3.962586      0.317978
Ag     15.488372     -8.610154     -0.241434
Ag     26.901628    -10.828181      2.819506
Ag     12.579383     -8.936837     -0.841506
Ag     21.588315     -7.784167     -1.482921
Pt     19.963171    -13.696770      2.842882
Ag     16.262531    -11.846403      9.058553
Ag     20.571265    -13.965385     -0.080270
Ag     27.442251     -8.471852      4.629327
Ag     26.118410    -12.994920      1.320554
Ag     14.148292     -6.823476     -1.921804
Pt     16.062537     -3.805657      5.818901
Pt     17.261933    -10.272671     -0.878327
Ag     23.562690     -4.861066      6.390285
Ag     20.957874     -1.279643      2.733509
Ag     16.097950     -8.684813     -2.958020
Pt     22.034097     -6.886083      7.235755
Ag     18.504709    -11.261234     12.556975
Pt     15.670112    -10.052356      4.789237
Ag     17.926812    -14.248864     -0.533721
Ag     19.735462     -5.989112     -0.507725
Ag     19.209444    -16.290717      1.361019
Pt     20.752775     -5.413395      5.534668
Ag     23.398868    -11.021565      5.079081
Ag     16.952457     -1.652049      7.183597
Ag     20.161926     -5.419077      8.233647
Ag     12.183407     -7.909489     11.223944
Ag     24.517237    -12.981611      7.049596
Ag     10.318995    -11.035766      3.025539
Ag     22.173047     -5.472930     -0.078996
Ag     15.221512     -7.582953     11.868195
Pt     23.518841     -8.631590      9.298404
Ag     24.598374    -15.472072      2.481810
Ag     20.069737    -11.320632      7.125748
Ag     19.252096     -5.145005     11.274470
Ag     20.407321     -3.654134      0.832531
Ag     13.036430    -12.177498     11.519850
Ag     22.371428     -2.975870      4.399221
Pt     15.299074     -6.172359      4.450452
Ag     18.364086    -16.089361      4.098820
Pt     20.708499    -11.705949      4.123586
Ag     16.562058    -16.727670      0.416985
Ag     20.973128     -7.768143      1.092756
Ag     13.790936     -9.799097     12.769729
Pt     15.271180    -12.251592      3.091354
Pt     18.403008     -7.280856      9.719182
Ag     15.210447    -14.921281     -1.388997
Ag     10.299565     -8.435821      7.735207
Ag     18.043383     -3.490371      9.404750
Ag     16.367471     -9.438273     13.737607
Ag     22.423213    -17.190533      6.579671
Ag     25.602150    -10.751522      8.413560
Ag     15.968164     -6.110676      1.509648
Ag     22.794940     -4.792678      8.935810
Ag     16.504395    -10.464447      1.864115
Pt     20.065498     -7.701791      3.985120
Ag     13.736591    -14.632083      4.121979
Ag     17.248533     -9.677066     10.777900
Pt     14.408826     -8.551926      2.633534
Ag     13.296393     -6.738354      0.749606
Ag     17.967709     -5.598656      4.940626
Ag     27.043691     -8.629947      7.285772
Ag     25.383331    -13.168571      4.208837
Ag     23.792629    -15.113845      5.171131
Ag     22.555841     -8.581558     12.027061
Ag     11.019999    -11.157615      0.506225
Ag     23.266254    -12.558602     12.334438
Ag     22.051485    -15.677287      2.037533
Ag     19.344572    -12.147280     -1.701857
Ag     12.291691    -12.938785      2.468732
Ag     22.929872     -7.368748      4.569531
Ag     19.348146    -13.798731      5.720244
Ag     14.609091     -5.978253      7.146441
Ag     19.947832    -10.105378     -0.120472
Ag     14.435242    -12.475683      5.983110
Ag     21.675674     -2.824146      7.069418
Pt     13.425986    -12.224617      8.770396
Pt     22.069828    -13.173437      6.172040
Ag     15.457449    -16.570165      3.194693
Ag     16.946117    -15.853564      9.473893
Ag     16.433112    -12.668484     -2.482571
Ag     12.467310     -4.149169      7.918456
Pt     12.861028     -8.440704      8.179647
Ag     23.017230    -17.592109      3.783516
Ag     17.022701    -14.374217      1.946618
Ag     16.901966    -18.112312      5.363430
Ag     13.852870     -5.707302      9.769763
Pt     19.026303     -6.054391      2.136520
Ag     14.977016    -10.146350      7.270251
Ag     24.192044     -6.717142     10.962725
Ag     20.419351    -17.937412      3.200857
Ag     11.055362     -8.524782      4.721508
Pt     19.169651    -11.220323      9.927758
Pt     24.355104    -11.029494      2.107728
Ag     21.045101    -10.717799     13.245305
Ag     12.931053    -14.496940      7.041439
