10

Ar      4.005324     -4.094871     -4.498513
Ar     -2.153489     -1.166717      4.842400
Ar      4.208020     -3.646564      2.615834
Ar      2.713592      9.775695     -5.026782
Ar      0.807869      1.346494     -1.077738
Ar     -2.480928     -2.049388     -6.691959
Ar      1.770130      5.598490     -3.067055
Ar     -6.219910     -0.108708     -0.919591
Ar      3.693220      2.691841      5.667672
Ar     -1.717335     -5.516939     -0.648291
10

Ar     -5.206800     -3.430332     -0.287360
Ar     -1.225205     -0.049716     -5.146377
Ar      1.348409     -0.634311      1.488499
Ar     -4.499152      0.202935      5.721295
Ar      2.250246      5.415194     -1.946948
Ar      3.832927     -4.001061      3.754799
Ar     -4.546754      3.805806      0.096988
Ar      5.467809      0.187982     -4.816720
Ar      0.293329      5.357025      4.846409
Ar      6.176422     -6.971719      5.972932
