10

Cl      0.000000      0.000000      0.995000
Cl      0.000000      0.000000     -0.995000
AR      1.987934      3.046113     -0.126329
AR     -0.506127      0.050118      4.367169
AR      1.353294     -3.376254     -0.126177
AR     -0.558024      3.388494      2.623074
AR      2.324162     -2.093021      3.222698
AR     -1.210379     -3.213604      2.623352
AR      2.688869      1.597876      3.222603
AR      3.608000     -0.356530      0.125163
10

AR     -2.084287      2.057607     -3.263906
Cl     -0.064756      0.012708      1.074005
AR     -1.068273      3.609616      0.244707
AR      2.235770     -2.833171     -2.449227
AR      3.291205     -1.207389      1.027878
AR      1.369629      3.201787     -2.858654
AR      2.629730      2.461559      0.671256
AR      3.872919      0.582165     -2.442656
Cl      0.148694     -0.083268     -0.773509
AR      0.604118     -0.146853     -4.447627
