30

Cd    -1.504508     0.919610     0.266253
Cd    -0.721802     1.080247    -1.438019
Cd     0.451195     0.629684    -0.570971
Cd    -0.934329    -0.372912     1.024975
Cd    -0.395830    -0.722599    -0.558945
Cd     0.000691    -0.091469     0.935097
Cd    -0.537226     0.296540    -0.699899
Cd    -1.686286    -0.004930     0.560754
Cd     0.325438     0.704857     0.407814
Cd     0.063411     0.537898    -1.482545
Cd     0.080585     1.401283    -1.011657
Cd    -1.555925     0.185110    -0.397551
Cd    -1.184701    -0.625130     0.025901
Cd     0.477776     1.522295    -0.146466
Cd     0.039444     1.600648     0.693867
Cd    -0.899468     1.436188     0.808465
Cd    -0.272412     0.793792     1.158896
Cd    -1.240787    -0.541230    -0.959531
Cd    -0.744058     1.864721    -0.847572
Cd    -0.514344    -0.250268    -1.500914
Cd    -0.341135    -0.814144     0.425886
Cd    -1.333425     1.093499    -0.692903
Cd    -0.699305     0.245983     0.315834
Cd    -1.293694     0.323685    -1.343619
Cd    -1.198742     0.560717     1.142307
Cd     0.223793    -0.167906    -0.027917
Cd    -0.284406     2.105795    -0.047446
Cd    -1.205088     1.818354    -0.017069
Cd    -0.458152     1.151075    -0.122691
Cd     0.305744    -0.243876    -1.007187
30

Cd     1.675304    -0.747689    -0.089597
Cd    -1.222481    -1.461688     0.105843
Cd     0.291531    -2.168329     0.672693
Cd     0.037350    -0.378602     0.814247
Cd     0.750091     0.044152     0.263089
Cd    -0.056118    -1.966818    -0.132577
Cd    -0.243072     0.109589     0.046254
Cd     0.684253    -0.785081    -1.243223
Cd     0.372276    -1.148196     0.263265
Cd     0.215731    -1.083860     1.350268
Cd    -0.019803    -0.575803    -0.738319
Cd    -0.193310    -0.940725    -1.638572
Cd    -0.362509    -0.843712     0.327775
Cd     0.689485     0.316077    -0.528076
Cd     1.342002    -0.300816    -0.845264
Cd     0.779484    -1.981344    -0.333881
Cd     1.127758    -1.466636    -0.601071
Cd    -0.754690     0.160068     0.839797
Cd    -1.416120    -0.827002     0.531099
Cd    -1.406061    -0.918056    -0.439080
Cd    -0.742798    -1.118021    -0.627396
Cd     0.264860    -1.529468    -0.875864
Cd    -0.447396    -0.808187     1.165770
Cd     1.249100    -1.455089     0.659487
Cd    -0.660435    -0.359123    -0.918968
Cd    -0.849674    -0.094872    -0.250951
Cd    -0.325833    -1.582882     1.071616
Cd     1.100193    -0.608530     0.852559
Cd    -0.502386     0.475413    -0.614033
Cd     0.262037     0.102048    -1.479981
