22

Ne     0.612466     4.010199     2.224770
Ne     2.446731    -0.912869     0.942598
Ne     1.086837    -1.912922    -1.716926
Ne     0.013476     0.028304    -0.032598
Ne    -1.715230    -2.135541    -0.465410
Ne     1.215161     0.308048    -4.051502
Ne    -1.382208    -0.837830    -3.102622
Ne    -1.302248     1.770524     1.751438
Ne    -2.472853     0.887853    -0.905917
Ne    -0.325008    -0.883816     1.688632
Ne     1.908235     2.036976     0.405972
Ne     1.714932     2.885823    -2.573510
Ne    -1.100319     2.168079    -3.426471
Ne    -3.184672    -0.578384     1.671575
Ne     1.288651     0.990492     3.107060
Ne    -1.694986    -3.069360     2.768325
Ne     0.726066    -3.414911     0.869077
Ne     1.208451    -2.099034     3.683535
Ne    -1.356526    -0.267547     4.214593
Ne     0.318270     0.830280    -1.599585
Ne     3.094330     0.309574    -1.709326
Ne    -0.596774     3.299239    -0.647728
22

Ne     2.106522     1.896851    -2.220796
Ne     0.927899    -0.331739    -4.261468
Ne    -2.387306     1.058470     1.477343
Ne     0.379655    -2.663542     0.436729
Ne     0.134478     2.588976     2.402170
Ne    -0.709339     2.542957    -3.664565
Ne     2.380707     1.654279     0.795143
Ne    -2.453975    -1.170848    -0.576756
Ne     0.134135     0.185041     0.027711
Ne    -2.324568    -0.336544    -3.956417
Ne    -0.537115    -2.609126    -2.775679
Ne     0.429313    -0.106257     1.811360
Ne    -2.763396     1.706090    -1.497148
Ne     0.947522    -2.153259     3.434573
Ne     1.912139    -1.082467    -1.437211
Ne    -0.559217     0.216421    -1.968117
Ne     2.026255     0.356948     3.581593
Ne     3.006828    -1.121297     1.213858
Ne    -0.643900     0.213911     4.338067
Ne    -2.012960    -2.005525     2.385379
Ne     4.425492     0.531586    -1.093108
Ne    -0.342658     2.644079    -0.467969
