201

Pd     14.555120     12.500063     14.465922
Pd     16.613511     14.579767     10.494057
Pd     18.622564     12.500030     10.514013
Pd      8.386520     10.420245     14.506490
Pd      6.377539     12.500071     10.514073
Pd     12.499996     14.520187     18.417697
Pd     14.520161     12.500064      6.582035
Pd     14.520149     12.499991     18.418003
Pd     12.499999     10.444831     14.465518
Pd     12.500004      6.377332     10.513801
Pd     12.499998     14.555060     14.466442
Pd     10.420249     16.613502     10.493864
Pd     18.622466     12.499989     14.486027
Pd     10.420247     16.613550     14.506202
Pd     10.444909     12.500071     14.466111
Pd     10.479833     12.500043     18.417848
Pd     14.579783     16.613532     10.493757
Pd      6.377533     12.500046     14.485920
Pd     14.579791      8.386725     14.506283
Pd     12.500000     18.622356     10.514265
Pd     14.579795      8.386672     10.493683
Pd     10.420226      8.386679     10.493777
Pd     12.499995     14.520078      6.582240
Pd     12.500027     14.555015     10.533624
Pd     16.613479     14.579749     14.505979
Pd     12.500012     18.622397     14.485746
Pd     12.499989     10.479764     18.418225
Pd     16.613409     10.420216     14.506479
Pd     14.555171     12.500068     10.534058
Pd     10.420214      8.386705     14.506194
Pd      8.386498     14.579759     14.505996
Pd     12.500015     10.479696      6.581875
Pd     10.479863     12.500031      6.582099
Pd     12.499996     10.444794     10.534459
Pd     12.499980      6.377463     14.486172
Pd      8.386505     10.420222     10.493486
Pd      8.386495     14.579758     10.494092
Pd     16.613442     10.420217     10.493453
Pd     14.579795     16.613574     14.506316
Pd     10.444904     12.500035     10.533947
Au     14.500798     14.500531      4.546715
Au     12.499923      6.436475     18.490101
Au      8.360747     10.358813     18.555962
Au     12.499984      4.472361     16.474520
Au     20.527854     12.500001     16.474588
Au     10.499261     14.500677     20.453265
Au     10.361438     18.655672     16.568068
Au     20.640471     14.529688     14.501785
Au     20.640390     10.470146     14.501577
Au     10.499244     14.500548      4.546701
Au     10.358821      8.360908     18.556099
Au      4.359439     14.529821     14.501763
Au     14.638345      6.344458     16.568071
Au      6.344414     10.361417     16.568095
Au     12.499975      6.436295      6.509973
Au     14.641204     16.639233     18.556084
Au     14.529776      4.359612     10.498403
Au      6.299033      8.314609     14.620927
Au     14.638348      6.344342      8.431921
Au     10.470208     20.640525     10.498286
Au      8.314498      6.299044     10.379245
Au     10.358782     16.639144      6.443920
Au     18.700912      8.314609     14.620838
Au     14.529870     20.640569     14.501648
Au      6.344274     14.638459      8.431971
Au      6.369447      6.369487     12.499943
Au      8.314530     18.700948     14.620982
Au     18.630470      6.369457     12.499936
Au      6.436299     12.499969      6.509854
Au     18.700913     16.685443     14.620967
Au     16.655804      8.344334     16.563195
Au      6.344353     10.361366      8.431857
Au      6.299100     16.685481     10.379073
Au     16.655876     16.656014     16.563180
Au     14.638652     18.655652     16.568161
Au     16.685481      6.298954     10.379138
Au     12.500032      4.234257     12.500035
Au     10.470168     20.640626     14.501687
Au     14.529754      4.359732     14.501609
Au     12.500054     12.499868      4.516086
Au      8.314600     18.700826     10.379008
Au     10.361663      6.344353      8.432026
Au     12.500031     20.765875     12.499941
Au     18.701016      8.314538     10.379000
Au     10.358857      8.360789      6.443965
Au     16.685382      6.299107     14.620730
Au     14.500565     10.499325      4.546832
Au     14.641220      8.360757      6.443951
Au     18.630601     18.630503     12.500018
Au      6.299044     16.685514     14.620971
Au     16.685502     18.700957     14.621033
Au     18.655759     14.638398      8.431973
Au     10.499357     10.499354     20.453329
Au      6.298956      8.314593     10.379056
Au      8.344098      8.344337     16.563198
Au     18.700947     16.685470     10.379089
Au     18.563595     12.499934     18.490168
Au     14.500658     14.500613     20.453332
Au      8.360791     10.358712      6.444026
Au     14.500609     10.499288     20.453398
Au      4.359492     14.529829     10.498243
Au     16.685432     18.700871     10.378988
Au      4.359574     10.470211     10.498429
Au     12.500043     18.563726     18.490207
Au     16.639229     10.358694      6.444064
Au      8.360773     14.641178     18.556099
Au     10.358808     16.639267     18.556028
Au     20.640477     10.470189     10.498410
Au      4.234191     12.500006     12.499957
Au     14.638584     18.655585      8.431900
Au     16.639182     14.641066      6.443882
Au      6.369398     18.630564     12.500040
Au      6.436281     12.499999     18.490117
Au     18.655499     10.361474     16.568084
Au      8.314550      6.299123     14.620732
Au      4.359498     10.470221     14.501536
Au      8.344053      8.344269      8.436814
Au     10.470228      4.359588     10.498456
Au     20.765798     12.499903     12.500053
Au     16.655849     16.655974      8.436846
Au     20.640549     14.529757     10.498281
Au     16.655851      8.344263      8.436722
Au     18.563752     12.499964      6.509856
Au     18.655637     10.361413      8.431829
Au     10.470274      4.359725     14.501578
Au     18.655706     14.638377     16.568119
Au      6.344253     14.638501     16.568099
Au      8.344149     16.655901      8.436891
Au     16.639176     10.358747     18.556049
Au     14.529814     20.640503     10.498339
Au      8.360830     14.641002      6.443903
Au     14.641169     16.639129      6.443928
Au     14.641054      8.360911     18.556091
Au     10.361627      6.344411     16.568029
Au     12.499967     12.499966     20.483916
Au     16.639150     14.641120     18.556198
Au     10.499475     10.499238      4.546867
Au     10.361443     18.655574      8.431944
Au      8.344061     16.656055     16.563090
Au     12.499948     18.563549      6.509712
Au     16.478023     12.500078     20.386272
Au     12.500047      8.521952      4.613917
Au     16.478112     12.499964      4.613888
Au      6.396764     10.470649     12.499972
Au     12.499943     16.579930     12.500024
Au     12.499885      8.522084     20.386278
Au     20.581913     16.574739     12.500073
Au     12.500006     20.527963      8.525307
Au     18.602837     14.529260     12.499997
Au     12.499927     16.478284     20.386287
Au     12.499983      4.472231      8.525526
Au     16.593278     16.593076     12.500014
Au     10.447332     14.552853     16.436836
Au      8.427071     12.499851     16.422012
Au     16.574773     20.582007     12.499959
Au     20.527906     12.499987      8.525439
Au      4.472012     12.500035     16.474543
Au     10.440677     10.440005     12.499974
Au      8.425200     20.582055     12.499925
Au     12.499937     12.500433     16.415685
Au     10.470400      6.396900     12.499957
Au     12.500098     12.499595     12.499973
Au     14.560305     14.559623     12.500005
Au     12.499932      8.421441     12.499937
Au      4.418008     16.574845     12.499994
Au     14.559366     10.440158     12.499973
Au     14.553231     10.446966      8.563279
Au     14.529632      6.396806     12.499945
Au     12.499933     12.500413      8.584314
Au     10.470853     18.602888     12.500015
Au     12.500041      8.426939     16.422020
Au     12.499973     16.478077      4.613660
Au     12.500001     20.528088     16.474603
Au     16.579270     12.500391     12.499965
Au      8.521829     12.500142     20.386174
Au     16.573044     12.499839      8.577967
Au     12.500063     16.572829     16.422003
Au     16.572949     12.499831     16.422052
Au     10.439785     14.559754     12.500023
Au      8.427093     12.499833      8.577986
Au     10.446791     10.447101     16.436734
Au     10.447375     14.552784      8.563195
Au      6.397226     14.529235     12.500031
Au      4.472030     12.500014      8.525445
Au     12.500019     16.572746      8.577987
Au     14.552683     14.552963     16.436837
Au     16.574669      4.418241     12.499991
Au     14.529208     18.602963     12.500000
Au     14.553205     10.446990     16.436736
Au     18.603292     10.470531     12.499933
Au     16.593284      8.406645     12.499918
Au      8.425264      4.418265     12.500053
Au     10.446829     10.447042      8.563244
Au      8.406831     16.593059     12.500027
Au      8.406757      8.406677     12.499958
Au     14.552651     14.552903      8.563187
Au     20.581823      8.425352     12.499915
Au     12.500062      8.426848      8.577988
Au      8.521908     12.499961      4.613810
Au      8.420499     12.500391     12.499992
Au      4.418039      8.425414     12.500061
201

Au     15.402593     -1.153735     -2.248100
Au     24.027227     -9.309736     -4.225535
Au     23.935996    -11.148864      0.338275
Pd     16.260425     -9.402959     -7.414029
Au     13.441459     -3.831743     -6.272094
Au     17.753314     -8.365318      0.866998
Au     19.145035    -15.261472     -6.005331
Au     19.942579    -10.096261      2.250019
Au     15.657912     -5.221886     -4.857508
Au     14.321265     -3.264277     -0.545963
Au     24.501870     -2.926451     -3.863970
Au     18.954688    -16.566559     -1.319488
Au     20.061142     -1.673267     -1.514881
Au     26.841496     -4.238050      0.338009
Au     19.628117     -6.528240     -9.930127
Au     20.980609     -7.747944      3.133091
Au     19.008703    -12.304924      4.004958
Au     21.384492      0.475728     -0.644096
Au     26.440623     -4.527916     -2.258045
Au     17.891099     -4.936919     -8.345465
Au     17.785353    -11.652421     -8.935261
Au     24.472860     -7.444192     -9.017819
Au     24.546315     -4.444905      3.870946
Au     18.096234    -14.570187      2.874493
Pd     17.305354     -2.265263     -1.137281
Pd     20.337815    -12.639869     -4.888524
Au     11.536354     -9.952043     -0.994999
Pd     23.809869     -9.799534     -6.963702
Au     18.607519     -7.771563      6.385906
Au     26.973253     -9.075830     -4.855160
Pd     23.503578    -11.666528     -2.569766
Pd     24.822517     -7.194122     -6.230143
Pd     14.835277     -8.980149      1.412882
Au     23.943836     -6.698750      5.375943
Au     21.172379    -16.622115     -4.360356
Au     25.435870     -7.171155     -3.251440
Au     24.138795    -15.709862     -5.037378
Au     21.691124    -11.436627      3.664322
Pd     22.645063     -9.597828      1.762216
Au     25.092401     -8.884639      1.108189
Au     25.329669    -11.467797     -8.725032
Au     25.792708     -8.395485      3.931918
Au     26.055971     -4.785328     -5.149570
Pd     16.107517     -6.864416      2.475625
Pd     17.199664     -8.866382     -1.717886
Au     13.556645    -11.839417      0.448120
Au     17.350567     -0.868096     -5.612971
Au     13.239181    -10.377401     -6.972248
Au     25.980540    -11.125878     -5.935023
Au     21.044762    -12.230480     -2.210553
Au     16.401260    -15.628613     -5.218926
Pd     23.634118     -5.235636     -1.985242
Au     20.061834     -6.419655     -6.906505
Au     14.834575     -1.260532     -5.049641
Au     22.320207     -1.581591     -5.008691
Au     18.636872    -12.587984      1.130636
Au     19.106512     -4.271681     -2.553528
Au     18.994222     -9.033235     -7.867376
Au     27.313228     -6.661937     -6.670617
Au     15.314492     -8.717888      4.335982
Au     14.179191     -8.047441     -8.867813
Au     24.667144    -11.053602      3.094665
Au     13.997899     -5.295174      1.240379
Au     22.598543     -3.018078      2.708613
Au     22.934908     -9.302665      4.762349
Au     14.589376    -13.835843     -3.706210
Pd     13.731370     -9.803369     -4.018998
Au     24.516430    -13.819492     -6.655909
Au     21.726924     -1.819908     -7.809526
Au     16.963435    -13.621340     -7.443307
Au     25.982429    -13.127602     -1.317496
Au     24.339173     -4.821074      0.978021
Au     17.761302    -13.353751     -4.461646
Au     14.533315     -7.585025     -5.872496
Pd     21.790686     -3.689616     -3.073206
Au     22.463201     -6.092379    -10.202434
Pd     18.474880     -4.585714     -5.477631
Au     14.085517     -3.222426     -3.326263
Au     26.299490     -9.074822     -7.761551
Au     25.590047     -5.081280     -7.974731
Au     22.190479    -15.604548      1.016870
Au     26.361513    -10.801404     -3.168880
Au     20.814822    -14.084470      2.502683
Au     16.678915    -11.062907      0.023529
Au     20.461620     -4.321502     -8.907876
Au     22.769489    -13.704874     -0.766771
Au     23.203808     -3.864230     -9.037938
Au     20.134307     -9.773240      5.122977
Au     26.536510     -6.255199      2.128561
Pd     22.422000    -13.859767     -3.451953
Au     17.954636     -0.225453     -2.835033
Au     20.906643     -5.592109     -1.415259
Au     26.378879    -12.704350      1.654283
Au     13.549907     -7.344492      2.740509
Au     23.325080    -13.210570      2.107980
Pd     19.464588     -4.000934      0.203571
Au     15.608316    -13.259745      1.705174
Pd     16.144206    -11.169843     -2.800407
Au     23.495988     -0.798583      0.718602
Au     22.939082    -11.936553     -5.233642
Au     28.443680     -6.067312     -1.252302
Au     20.415453    -10.826517     -9.446194
Au     27.368988     -8.396280     -2.182741
Au     19.971402     -8.173434     -2.272852
Au     14.321039    -13.990401     -6.731236
Au     25.483780    -13.260858     -4.183900
Au     21.131467     -7.171080      6.113181
Au     15.099022     -5.548954     -7.918105
Au     24.888910     -2.682226     -1.080279
Pd     23.671097     -7.037425      2.805187
Au     21.049859     -8.477360    -10.928287
Au     18.453185    -16.850731     -4.188218
Au     12.542045     -7.545628      0.042675
Au     12.929982    -12.140991     -5.272935
Au     22.436297    -12.173952     -8.070710
Au     19.917950     -3.484523      3.100094
Au     21.049883     -4.164162     -5.747309
Au     18.766712    -10.646293     -3.449276
Pd     18.270379    -11.136432     -5.959708
Pd     17.100369     -7.040264     -6.493947
Au     20.470918     -1.370932      1.298336
Au     23.291319     -5.432244     -4.459641
Au     15.239567    -11.909659     -8.402903
Au     12.353418     -6.350643     -7.338494
Au     14.355865    -11.229506      3.280942
Au     15.086732     -2.721092      2.260883
Pd     22.766843     -6.006905     -7.366485
Au     14.639916     -9.502916     -1.495906
Au     15.897173     -0.835553      0.328001
Pd     21.331965    -11.825860      0.842957
Au     24.987738    -15.057658      0.363905
Au     22.005336    -14.557449     -6.421816
Pd     18.190689     -6.253757     -0.704220
Pd     20.422911     -7.705492      0.545743
Pd     21.633517     -9.980381     -3.815096
Au     13.185069    -12.181167     -2.343445
Au     23.084441     -7.097720     -0.162294
Au     24.441328    -15.579687     -2.311702
Au     24.014807     -3.137492     -6.623260
Au     20.366577     -0.318784     -6.265628
Au     12.919071     -5.649289     -4.569737
Pd     22.613549     -7.754595     -3.010483
Pd     25.972179     -6.597021     -0.387841
Au     15.506232    -11.799065     -5.788847
Au     19.880553    -12.852925     -7.735455
Au     16.363535    -12.847578      4.419288
Au     12.054773     -7.754218     -2.789801
Au     27.446872    -10.352920      2.378025
Au     11.999510     -8.281276     -5.232235
Au     16.784918     -4.433255      0.704307
Au     12.259323     -9.674080      1.720365
Au     18.512254     -9.381089    -10.732188
Au     28.101306     -6.355113     -3.799806
Pd     15.022442     -7.528310     -3.060779
Au     22.040752    -16.263814     -1.770279
Pd     19.109909    -10.270034     -0.416581
Au     23.017549     -0.948573     -2.315734
Au     17.705121     -6.779881     -3.697869
Pd     17.066792    -10.676800      2.859192
Au     16.868167     -2.640665     -3.975508
Au     19.868543    -14.764810     -3.134853
Au     17.204758     -4.169439      3.454778
Au     14.608608     -4.781878      3.734147
Au     25.298119     -2.281883      1.744020
Au     16.620212     -7.323175     -9.390314
Au     18.873492     -2.490058     -7.227810
Au     18.282061      0.122434     -0.328811
Pd     21.587932     -8.266397     -8.512919
Pd     19.400088     -1.964557     -4.489759
Au     20.851798      0.415836     -3.493210
Au     13.315038     -5.666742     -1.541434
Au     19.244428     -5.484441      4.973866
Pd     17.973553     -8.059427      3.465712
Au     16.580941     -6.529641      5.094904
Pd     24.638505     -9.065527     -1.698616
Au     21.144865    -10.335749     -6.791298
Au     21.824272     -4.875019      4.210229
Au     22.118925     -7.816340     -5.673661
Au     15.131381    -13.512471     -1.224653
Au     19.570533    -16.128604      1.619427
Au     23.358691    -10.189010    -10.004253
Au     11.126048    -10.504318     -3.447667
Au     16.650755     -9.150697     -4.765437
Au     17.502140    -10.376505      5.587893
Au     26.891664    -10.685177     -0.332049
Pd     17.897051    -12.935895     -1.564483
Pd     19.543283     -8.635211     -5.007632
Au     15.502365     -6.961888     -0.325646
Au     16.330558     -3.171898     -6.713088
Au     15.767516     -9.792905    -10.102400
Pd     20.320492    -14.164712     -0.414395
Au     28.095226     -8.070585      0.650132
Au     22.265285     -3.440588     -0.504532
Au     17.270995    -14.803801      0.070252
Pd     20.590520     -5.921561     -4.174318
Pd     21.508878     -5.408750      1.527645
Au     17.934263     -2.157157      1.626120
Au     21.964723     -9.891593     -1.186328
Au     18.890672     -6.231056      2.012213
Au     16.776914    -15.294783     -2.648840
Pd     16.145888     -4.760537     -2.094335
