44

Li   -0.883015    -0.644837     1.726186
Li    1.292974    -4.341450     1.634678
Li    1.457074     1.022089     1.329422
Li   -1.233316    -1.445582    -0.953813
Li    0.778343    -0.838962    -1.737707
Li   -1.969715     0.188081     0.395117
Li    1.275648     1.168284    -0.888464
Li   -0.425213     1.806441     0.427089
Li   -0.827378     0.686244    -1.457573
Li    0.708397    -1.587827    -0.909178
Li   -0.304326    -1.892475    -0.511550
Li    1.851294     0.197823     0.673981
Li   -1.176146    -1.569733     0.157740
Li    1.500082    -0.758411    -0.880270
Li    0.459305     0.719093     1.750328
Li   -1.544698    -0.747350     0.835401
Li   -1.283739     0.290874     1.274177
Li    1.749567     0.253019    -0.443879
Li   -0.496310     1.098793     1.293481
Li    0.603612    -0.725927     1.092500
Li   -0.228965    -1.148221    -1.353321
Li    1.371171     1.099858     0.218908
Li    0.515719     1.419483     0.880434
Li    1.034409     0.165462    -1.317563
Li   -1.610373    -0.630503    -0.281256
Li   -1.202151     1.002713     0.414599
Li   -1.032678    -0.380246    -1.208545
Li   -2.386514    -7.651367    -1.602127
Li   -0.628099     1.250671    -0.517105
Li    0.224993     0.930232    -1.176865
Li   -1.402097     0.438371    -0.531058
Li    0.426119     1.493726    -0.232633
Li    0.397477    -1.307744     0.114637
Li   -0.462262    -0.992478     0.768946
Li    1.172686    -0.490030     0.139387
Li   -0.208103     4.025455     1.199670
Li    0.131344    -0.281151     0.242878
Li    0.778245     0.358966     0.770621
Li   -0.538452    -0.847364    -0.345537
Li    0.445911    -0.550600    -0.729086
Li   -0.897941    -4.953883     0.318471
Li    0.690099     0.432824    -0.315600
Li   -0.144429     0.746120     0.329394
Li   -0.341199     0.199486    -0.594917
44

Li     0.488391    -0.774583     1.284079
Li     1.011750     0.165350    -0.584040
Li    -0.070440     1.068113     1.791907
Li    -0.654373    -0.836637    -1.440775
Li    -3.315307     3.744165    -0.745854
Li    -0.062308     0.666125     0.786771
Li    -1.025731     0.787110     1.246132
Li     1.487238     0.719615     0.776370
Li     1.099553    -0.230128    -1.614438
Li    -1.753114     0.754723    -0.452778
Li    -1.324801     1.440296     0.321485
Li    -0.338372     1.365560    -0.105413
Li    -0.762442     0.611708    -0.870820
Li     2.133909    -3.487724    -0.999717
Li     1.720206     0.884897    -0.325231
Li    -1.553192    -0.126436    -1.168199
Li    -0.998126     0.412915     0.155511
Li     0.694360     1.364576     1.138212
Li    -0.406818    -1.421768    -0.607046
Li     0.007052     0.337705    -0.277240
Li    -0.889116     4.416190    -1.633230
Li     0.686519     0.290490     1.496195
Li    -0.575833    -1.046282     1.264324
Li    -0.798742     0.207487    -1.866275
Li    -1.698894    -0.286023    -0.033387
Li    -6.356375     5.104836     0.713417
Li     0.730728    -0.064505     0.499888
Li     0.334091    -0.688859    -0.297640
Li     0.274082     0.951785    -1.022731
Li    -0.422365     1.647467     0.900081
Li     0.067499    -1.462275     0.469025
Li     1.754878    -0.167848     0.137300
Li     0.725535     1.079329     0.053823
Li     0.667806    -1.744983    -0.398045
Li     0.424145    -1.140016    -1.255372
Li     1.079558    -1.039119     0.434158
Li     1.340658    -0.882434    -0.735388
Li    -1.449781    -1.206167    -0.781733
Li    -0.271008    -0.407637     0.574099
Li    -1.311932    -0.296039     0.949846
Li    -1.972557     0.491456     0.648411
Li     1.550280    -0.345197     1.125299
Li    -1.061417    -1.173108     0.243495
Li     1.977742    -0.055870    -1.026948
