316

Na     3.279080     2.282586     2.194088
Na     0.314381    -1.131849     4.680772
Na     2.988609     0.367736    -0.824830
Na     1.142201     1.416819     2.871085
Na     1.158025     2.657837     0.730147
Na    -2.008727    -0.605000     1.165802
Na     2.059896    -0.749159     2.104632
Na     1.608307     1.611394    -0.540057
Na    -1.317440    -0.459223     0.522549
Na     0.363619     0.950077     2.559442
Na     0.312080    -0.222148     0.450448
Na    -0.091895     3.404347     2.672227
Na    -1.773430     0.020740     2.992780
Na     1.269241    -0.234657     2.012407
Na    -1.500041     0.501175    -1.859714
Na    -1.441701    -2.510339     3.312134
Na     1.625882     0.080631     0.502586
Na     0.603873    -1.707566     3.457402
Na     0.832490     0.581130     0.435494
Na    -0.081475    -1.857379     4.119816
Na    -0.658248    -0.884490     1.086443
Na    -1.185099     0.322887    -0.952202
Na     0.538463     1.476922     4.122284
Na    -0.220265     2.578417    -1.332264
Na    -0.400577     0.779935    -0.643266
Na     2.617350     2.727243     1.599162
Na     2.594173    -1.145817    -0.082333
Na     1.733179     1.937383     0.382456
Na     2.281255     1.188427     0.051666
Na     0.956064    -0.050220     1.144151
Na     0.920708    -2.584670     1.137562
Na    -2.149512     1.951207     0.826934
Na    -2.016775     1.820555    -0.867805
Na     0.693711    -0.794149     3.105267
Na    -2.762177     0.206272     2.022793
Na    -1.634496    -1.056169     4.227146
Na     1.858127     2.849930     0.057404
Na     2.296911     1.764009    -1.218012
Na     2.298241     0.219085    -0.148434
Na    -1.660683     2.858747     2.184658
Na     0.383378     0.238706    -2.020652
Na    -2.757173     1.182467     2.229401
Na    -0.546531    -0.550078     1.995562
Na     1.861450     0.363805     4.002762
Na    -1.561565    -2.285530     1.124499
Na    -0.928226    -0.900095     3.549087
Na    -1.416833     1.540355     3.673637
Na    -0.890735    -2.684021     1.702591
Na    -0.492440     1.818335     0.679260
Na     1.727800     2.979209     1.968327
Na     0.357775     1.843521    -1.691253
Na    -0.169209     0.142099     2.569557
Na     0.829694     1.574812     1.972142
Na     1.207683     0.901923    -1.104581
Na    -0.301634     3.624529     0.044156
Na    -2.509569     1.177311    -0.277893
Na    -2.816304    -1.673870     2.148709
Na     0.675835    -2.755803     2.097097
Na     0.105777    -0.410278     1.355519
Na     2.392250    -0.948202     3.002514
Na    -2.884130     0.861294     1.285976
Na     1.999172    -1.680978     2.441944
Na    -1.222974    -1.166269    -0.121303
Na    -0.728443     1.667632     2.983141
Na     0.434642    -0.901485    -0.172475
Na    -2.910171    -1.992619     1.206702
Na    -1.319769    -1.591673     2.971279
Na    -0.724629     2.929076    -0.541290
Na     2.390065     0.030708     3.219711
Na     0.186812     3.287706    -0.752053
Na     0.943291     1.456616     0.116007
Na     2.513665     0.846689     1.710308
Na    -0.667716    -2.533703     0.757644
Na     1.327655     1.814544    -1.467179
Na     0.245441    -2.745554     0.415688
Na    -0.442635    -2.332671    -0.188797
Na    -1.686602     0.661338    -0.175910
Na     0.825345     3.205906     2.321256
Na     2.421873    -0.428107     0.576859
Na    -1.436605     3.077828     1.232161
Na    -0.442438     1.513138     3.916786
Na    -0.982966     3.028738     2.901894
Na    -0.555017    -0.001416     0.793256
Na    -1.902868    -0.288764     2.078028
Na    -1.205255    -0.699255     2.643862
Na    -1.263643     0.848097     3.003457
Na     1.062610    -0.087865     3.658476
Na     0.252687     0.930346    -1.325055
Na     1.882650    -1.259984     0.595771
Na    -1.681954     1.626452     0.030180
Na     0.880395    -0.939375     1.449763
Na    -2.945252    -0.440262     0.152823
Na    -0.204331    -2.101097    -1.131559
Na    -0.057966     1.111108    -2.234774
Na    -0.860549     2.377884     3.640285
Na    -0.277478    -3.078691     2.372166
Na     1.154422     3.258613    -0.527898
Na     1.732155     2.519891    -0.880797
Na    -1.106958     0.180066     2.334789
Na     0.238864     1.633115     3.204616
Na     0.363278     3.802195     0.760987
Na     2.388816     1.500755     0.975389
Na     0.210836    -2.389980     2.889299
Na     0.482247     0.275568     1.910582
Na    -0.019244     0.648207     4.160759
Na     3.241558    -0.956477     0.658673
Na     0.921562     1.084679    -2.021979
Na    -0.333419    -1.388060    -0.473701
Na    -0.098662    -2.170191     1.981146
Na    -1.928659     0.670542     2.286997
Na    -1.329383    -1.028274     1.735189
Na    -1.200546     1.293725    -0.754992
Na     2.037187    -1.978807    -0.049020
Na     0.812838    -0.625277    -1.777952
Na    -0.705256     0.954612    -1.525967
Na     1.507407    -1.348958     3.238594
Na    -1.280978     2.337303     0.594811
Na     0.191780     0.444485     1.063882
Na    -0.311847     1.668871    -0.984051
Na     0.265574    -1.461788    -1.727263
Na     3.349694    -0.640473     1.594921
Na     1.193081    -1.140522     2.336981
Na     2.323367     0.190503    -1.541461
Na     1.353972     0.209850    -1.796858
Na    -2.620919     0.508048     2.968758
Na     0.135794     3.616249     1.719349
Na     0.773702     0.099041     2.775397
Na    -2.098802     2.868165     0.509589
Na     1.050297     1.769197     1.038173
Na    -0.984249     0.680944     3.938288
Na     1.093747    -0.740804     0.520331
Na     2.425375     2.107857    -0.285239
Na     0.678763     0.070287    -1.105290
Na     1.663855    -1.461973     1.538086
Na    -2.974036     1.522232     0.541467
Na    -2.692978    -1.338760     3.086857
Na    -0.554426    -0.192279     4.157066
Na     0.011615    -1.283252     1.659120
Na     1.733005     0.393099     1.426501
Na     1.895099     1.052925    -1.783934
Na     0.658641     0.778353     3.445247
Na    -0.624052     1.851662    -1.892833
Na     2.878521    -1.278596     2.190173
Na     1.585932    -2.387863     1.859833
Na    -0.807968     2.015229    -0.207238
Na    -0.055848     1.784344     2.305900
Na    -0.306013     0.820592     3.242500
Na    -0.592753     0.987797     2.339610
Na    -0.183951     2.476041     2.945108
Na     0.122523    -2.012816     1.047990
Na     0.038587     2.689709     2.016470
Na     0.135567    -0.751230    -1.067684
Na    -2.868771    -0.112510     1.090677
Na     1.051218     3.403867     1.372232
Na    -0.169137    -0.596526    -1.983861
Na    -2.214917    -1.859927     0.548839
Na     2.426628     0.537082     0.777128
Na    -2.095243    -0.930719     0.256026
Na    -1.562058    -1.023885    -1.038050
Na     2.526978    -1.070397     1.307586
Na     3.346251     0.337585     1.801652
Na    -2.236290    -2.432644     1.798354
Na    -1.616811     2.553192    -0.310335
Na    -2.719755    -0.770385     1.824097
Na    -2.002349    -1.186858     2.391919
Na    -2.867412     1.841964     1.477707
Na     1.814476    -2.202589     0.902411
Na     1.110267    -2.059101     2.673107
Na    -1.355121     0.491131     0.708103
Na    -2.496144     0.198086    -0.473821
Na     2.024692     1.179964     2.505427
Na    -0.554206    -1.607044     0.454647
Na     1.785138    -0.655119    -1.533182
Na    -1.205900     3.257758     0.273538
Na    -2.049398     1.314964     1.559820
Na     0.969832    -0.094610    -0.204017
Na    -1.118076    -1.884985    -0.779519
Na     1.885841    -0.614578     3.795503
Na    -2.016016    -1.655890    -0.408477
Na    -2.499835     2.155921    -0.056832
Na     3.240178     1.000716     1.054783
Na     0.547346     0.755253    -0.442148
Na    -1.955000     0.685856     3.686239
Na    -0.889012     1.115748     0.120592
Na    -0.714223     1.624383     1.612426
Na    -2.138592     0.031543     0.431771
Na     1.149157    -2.380132     0.185646
Na     1.553829     0.547984     3.094612
Na     0.342799    -1.814509     0.114826
Na    -0.649272    -1.426592     2.308023
Na    -2.109320    -1.504775     1.475974
Na     1.010811    -1.656116     0.823960
Na    -1.127544     2.215296    -1.107987
Na    -2.053319     0.354096     1.360178
Na    -0.101998     0.610104     0.218842
Na     1.360071    -2.147533    -0.767130
Na    -0.850161     2.315081     2.246511
Na     1.600054     2.041875     2.262170
Na     2.820815     1.648205     2.809328
Na     0.084675     2.371042    -0.426234
Na     0.221799    -1.115227     0.740237
Na    -0.599717     0.277770    -2.215747
Na    -1.402485     1.500959     2.281698
Na    -0.661481    -1.098616     4.470165
Na     0.108568     2.345058     3.863349
Na     2.479786    -1.991942     1.622574
Na     3.318741     1.309024     1.999879
Na     0.989829    -1.004663     4.001612
Na    -1.441798    -1.920171     2.053321
Na     0.760449     2.556564    -1.124561
Na     1.634765     0.041917    -0.863132
Na     1.226812    -1.434955    -0.110694
Na    -1.227062    -0.140367     1.430033
Na     1.697372     1.339841     1.617297
Na     2.535060     2.425628     0.652566
Na     0.472583    -2.527419    -0.539800
Na     0.260947     2.884275     1.082183
Na    -0.770428     3.255755     1.950036
Na    -2.323094     2.670783     1.457666
Na     1.494215     2.760420     2.920364
Na    -1.342192    -2.109581     0.168555
Na    -2.154401     0.994149     0.626254
Na     3.093636     1.663587     0.313986
Na     2.883733    -0.301646     2.417554
Na    -0.873167     0.156464    -0.075370
Na    -2.220544     2.028112     2.221096
Na     0.382672     2.166937     0.459773
Na    -2.130670    -2.098937     2.727426
Na    -2.971661     0.539876     0.340130
Na     0.787563    -1.835291     1.764437
Na     2.469088    -0.488377    -0.819344
Na    -0.544463     3.453952     1.000976
Na    -1.505866     2.139936     1.539966
Na     1.932549     1.894774     3.185307
Na     1.732472    -0.555136     1.225675
Na     0.939806     2.482143     1.675235
Na    -1.251374     0.811978     1.630100
Na     3.192119     1.975331     1.251976
Na     1.608730     1.038654     0.700854
Na    -0.630562     2.531694     1.309876
Na     2.971740     1.339858    -0.625227
Na     0.582381     2.979727     3.266501
Na    -0.262169    -0.743342     2.884884
Na     0.009863    -2.933543     1.379647
Na     1.250170     0.723419     2.211956
Na    -0.656967    -1.246263    -1.396948
Na    -0.367674    -1.633409     3.210489
Na    -1.047236    -1.809686     3.894617
Na     1.030597     2.122628     3.536931
Na     0.115590    -0.037851     3.454478
Na    -1.086999    -0.383174    -1.638997
Na    -1.495438    -0.157831     3.919965
Na    -2.812425    -1.078267     0.909760
Na    -0.481228    -2.564873     3.530521
Na    -1.514882     1.474989    -1.662946
Na    -2.452193    -0.787089    -0.645971
Na    -1.986351    -0.145840    -1.263541
Na     0.285381     1.296859     0.765972
Na     3.255854     0.026312     0.853119
Na    -1.651889    -0.307775    -0.359129
Na     2.700540    -1.790026     0.676891
Na     2.529700    -0.112465     1.511381
Na    -2.009908    -1.767011     3.655356
Na     1.234094    -1.491931    -1.503629
Na     1.049949     2.341838    -0.202784
Na     2.155733     0.869075    -0.865004
Na     2.060992     0.214857     2.316094
Na     0.482507     3.057989     0.145699
Na    -0.010948     1.485613    -0.104913
Na    -2.906270    -1.432978     0.001126
Na    -0.767836    -0.540591    -0.730885
Na     1.455572     1.253213     3.784187
Na     0.163622     1.993559     1.385856
Na     0.306769    -1.488934     2.547696
Na    -0.287345     0.099075    -1.306606
Na     2.867409     0.671790     2.620610
Na     0.561093    -1.594807    -0.810393
Na     1.262567     3.575800     0.407190
Na    -1.539704    -2.847474     2.390228
Na    -2.455123    -0.229895     3.687561
Na     1.102180    -0.780345    -0.844722
Na     0.392152    -0.222781     4.362635
Na    -2.596956    -0.451942     2.733225
Na     0.020940    -0.936088     3.771010
Na     1.775882    -0.616417    -0.143724
Na    -0.574016     0.937043     0.985690
Na    -1.353552     1.437832     0.907675
Na    -2.100601     1.367807     2.962568
Na     0.956461     0.601237     4.356890
Na    -0.450767     0.317792     1.691697
Na     3.127234    -0.297154    -0.087614
Na     2.471900     1.801266     1.900208
Na    -1.555290     2.205740     2.937900
Na     0.711769     2.265753     2.609493
Na    -2.021007     0.838696    -1.074815
Na     1.486293     0.723179    -0.206864
Na     1.927855    -1.323560    -0.800123
Na    -0.449464    -0.693649     0.161046
Na     1.574270    -0.419474     2.892166
Na    -0.829675    -0.002238     3.234159
Na    -0.766421    -1.775464     1.391563
Na     3.130552     0.683681     0.116222
Na    -1.864610    -0.873353     3.298993
Na     0.014130    -0.065744    -0.424947
Na     0.652954     1.648760    -0.780783
Na     2.352365     1.010743     3.414380
Na     1.824054     2.239577     1.316530
Na     2.388659     2.525758     2.561691
Na     0.399601    -0.602019     2.225971
Na    -1.430664    -1.361222     0.816626
Na     1.949391     3.160489     1.005161
Na    -0.770747    -2.304344     2.638251
Na    -0.402532     2.707110     0.367486
Na     0.937398     0.887585     1.338620
Na     0.069942     1.109006     1.679408
Na     1.344179    -0.298725     4.581282
316

Na     2.626746    -1.608757     0.696964
Na    -0.373485    -0.058271     0.150184
Na     2.872315     1.400718    -3.404167
Na     0.546910     1.100487     0.633171
Na    -0.746221    -0.076257     1.073028
Na     1.415355     2.239695     0.560457
Na    -0.044041    -2.963556    -0.715367
Na    -1.297302    -2.296419     0.587887
Na    -1.909249     1.034099     0.674274
Na     0.633429    -1.946152     2.431550
Na     2.507593    -0.595150    -2.197016
Na     1.972174     1.789254    -3.694370
Na     1.675085     0.854005    -2.256070
Na     1.047045     1.883303    -3.440231
Na     1.355441     1.609584    -1.840397
Na     2.108093     2.918315    -2.442892
Na    -1.421688     0.390423    -2.891131
Na    -1.123629     2.324502     0.147239
Na     2.388542     0.255399    -3.755984
Na     0.887013    -0.162442     0.712016
Na     0.467396     1.878181     2.110368
Na     3.445932     0.917592    -2.201925
Na     3.452323    -2.646080    -0.495530
Na     0.268250     1.060615     1.498043
Na    -1.126500     0.109539    -0.481118
Na     3.324790    -2.203684     0.500747
Na     1.662258     2.576693    -3.172089
Na    -0.529263     1.162980    -3.529218
Na    -1.995874     0.093393     0.534630
Na    -0.252403     0.576473    -0.617994
Na     0.963765    -0.806874    -0.741601
Na     1.466553    -0.309490     1.371603
Na     0.343111     0.432093     3.113673
Na     4.039207    -1.853177    -0.222370
Na    -1.867181    -0.722285    -1.264263
Na    -0.902488     0.620044    -1.307536
Na     1.143565     1.327122     1.812697
Na     2.197882     1.192657     1.597335
Na     4.147846    -0.894284    -0.118712
Na     2.535562    -2.835150    -0.823680
Na     0.770659     0.904252    -2.151638
Na     2.983501     1.678911     1.481381
Na    -0.663195    -1.915097    -1.816963
Na    -0.456172     0.249702    -3.079183
Na    -0.229431     0.944551    -1.843512
Na     3.886657     0.235115    -1.584825
Na     0.030085    -1.450301     1.202337
Na     2.769865    -1.940243    -2.104303
Na     1.954735    -2.317131     0.355244
Na    -1.780023     0.210486    -1.176588
Na     1.805821    -3.201382    -0.193438
Na     0.084175     0.984625    -2.842171
Na     0.309659    -0.764303    -1.413960
Na     2.097103     2.798142    -0.523882
Na     0.215784    -1.337015    -0.563501
Na     0.153065    -2.124010    -0.226912
Na     2.725362    -0.242941    -0.562609
Na     3.294651     0.242196     2.363982
Na     0.535926    -0.006441    -0.780641
Na    -0.239359    -2.775190    -1.726280
Na     2.372616     0.366096     2.693915
Na    -1.106671     0.524985     0.425644
Na     0.068930    -0.633985     0.848652
Na     3.198338     2.236378     0.640189
Na     1.958860     0.448154     1.065034
Na    -0.515574    -1.389988    -2.627364
Na    -0.888387    -2.519038    -1.037892
Na    -0.241111     0.313747     1.853548
Na    -0.034917    -0.607378    -3.059261
Na     1.079025     2.374128    -1.381409
Na     1.613972    -2.065066     2.255502
Na     1.743747    -1.407116    -0.986032
Na     1.934714    -1.462064    -0.028651
Na     2.146549     1.905853    -0.160940
Na     0.401180    -0.592880    -0.028559
Na     0.405044    -2.232123     0.716270
Na     3.846355    -0.980311     1.621209
Na     3.038983    -0.127472    -1.379305
Na     3.948432    -1.412678     0.708454
Na     1.328489     0.366676     2.895240
Na     2.047894    -3.237121     0.840398
Na     2.463458    -1.232716     1.523639
Na     3.900681     1.262098    -1.463272
Na    -0.966089     1.529506    -1.753840
Na     2.840697    -0.494924     2.726597
Na    -0.808913    -1.943035     1.352161
Na     2.634152    -2.536482     1.086416
Na     0.913802    -1.887787     1.480392
Na     3.835559     1.932325    -0.020042
Na     0.675642     2.607723    -2.956771
Na     2.033234    -1.380920    -1.869715
Na    -1.592621    -0.537664     1.259807
Na    -1.087413    -0.175234     2.026877
Na    -0.325217    -1.536841     2.139683
Na     0.004331    -2.270952    -2.511185
Na    -0.439003     1.619640     1.762158
Na     0.788037     1.897544     1.200699
Na     1.427422    -1.450030    -3.075670
Na    -0.122494     1.723751     0.787309
Na     2.594153     0.197142     0.320113
Na    -1.837516     0.658884    -0.297688
Na     0.942034    -2.796225     1.944604
Na     3.362491    -1.741065    -0.855872
Na     2.906947     1.518567     0.115204
Na     1.384245     0.193452    -3.503304
Na     2.979798     2.431438    -0.251596
Na     1.922668    -0.672507    -3.473194
Na     0.130654     0.210554    -2.425354
Na    -1.352868    -1.609133    -1.187766
Na     4.377388     0.687542    -0.808871
Na     1.227706    -2.636547     1.013011
Na     2.750943    -2.916711     0.193508
Na    -0.030351    -2.068799    -1.114024
Na     1.537183    -2.126462    -1.518778
Na     1.359910    -2.941711    -2.103280
Na     0.840543     1.294166     2.787666
Na     1.885151    -1.937378     1.325827
Na     0.501104    -1.414274    -2.915318
Na     2.280321     1.751989     0.761548
Na     2.676816    -2.022557    -0.197911
Na     1.061539     1.553033    -0.925499
Na     1.937375     0.307412    -0.257433
Na     0.792084     0.019090    -1.716426
Na     1.740404    -0.057198    -1.893305
Na     1.645422    -0.768725    -2.549046
Na    -0.296125    -0.647849     1.686512
Na     0.073323     0.314951     0.955074
Na    -0.152604     0.092359    -1.502075
Na     2.268049     0.342788    -1.165309
Na     1.287270    -0.795494    -1.593303
Na     2.765439     1.632113    -0.788709
Na     0.304321     3.044238    -1.156006
Na    -1.696369    -1.549373     1.097477
Na     1.645434     1.700082    -2.710337
Na    -0.569960    -0.727479     2.606820
Na    -0.178410     2.653088     0.428271
Na     1.172163     3.174020    -0.815924
Na     0.496193     0.821304    -1.216367
Na     3.350644    -0.130178    -2.312127
Na     3.267021    -1.306047     0.014460
Na     2.583395    -2.081546     1.943192
Na     0.670231    -3.173559    -1.461014
Na     0.663193     2.802344     0.807582
Na     3.930555     2.183271    -1.836320
Na     1.061504    -1.642755    -0.324256
Na     1.213298     2.292145    -0.444175
Na     4.414438     1.689520    -0.785644
Na     1.896742     1.210484     2.577722
Na    -0.001811     2.485578     1.393511
Na     0.902119    -0.970579     1.138893
Na     1.856356    -2.144057    -2.483350
Na     1.337153     2.070124     2.370151
Na     1.408555     3.089688     0.173659
Na     2.248015     1.211929    -1.538483
Na     1.193496    -1.829340     0.616408
Na     1.070743     0.124317    -2.628292
Na     2.705239     0.777193    -0.417277
Na     0.278467    -0.266104     2.500456
Na     3.489733     0.812258     1.655806
Na     1.320628     0.594897     0.349706
Na     3.836723    -0.699506    -1.639698
Na     0.152065    -1.465331    -1.950104
Na    -1.139466    -0.909380    -0.613491
Na    -1.263912    -1.412019     0.163265
Na    -1.458354     0.464228     1.302679
Na     0.961640     2.696931     1.728919
Na     1.405108     1.044167    -3.956408
Na     2.259647     2.691084     0.385223
Na     2.889642    -1.103332    -1.479436
Na     0.891301    -3.374610    -0.442857
Na     1.814631    -0.247809     0.458104
Na     2.504400     2.610870     1.355348
Na     2.493659    -0.761773     0.263515
Na    -1.070653     1.966138    -0.837159
Na     3.069654     1.686946    -1.683037
Na     0.346250     1.307724    -0.392729
Na     3.127305    -1.360991     2.279291
Na    -0.938675     0.844845     2.082823
Na     3.522222     0.235800    -0.703201
Na     2.155229     2.045699    -2.013682
Na     2.234377    -0.595156    -1.268717
Na     3.097577     0.778887    -1.301073
Na    -1.748219     1.619580    -0.121998
Na     3.758773    -0.553060     2.479861
Na    -0.672536    -1.691162    -0.487107
Na     4.206834    -1.345883    -1.007588
Na     3.307216    -1.072971    -2.387572
Na    -0.921637     2.251070     1.099124
Na     2.907348     0.545228    -2.923498
Na    -1.649610    -0.184591    -2.086533
Na     2.585207     0.445661    -2.013071
Na     1.703115     0.472371     1.944083
Na     0.381595    -1.413786     0.396421
Na    -0.479444    -1.816275     0.521175
Na     0.815509    -0.401900     3.141577
Na     2.688514     2.470922    -1.284737
Na     0.463517     0.265650    -3.305538
Na     3.939433     0.022520     1.700815
Na     0.579982    -1.041761     1.947025
Na     1.904338     1.146863    -0.701805
Na     2.149594    -1.282232     2.507780
Na     0.504691    -0.218581     1.547158
Na     0.093020     1.896587    -3.199024
Na     0.676705    -2.362030    -1.787523
Na     0.725854     0.504542     2.108496
Na     2.625017    -1.221884    -0.611366
Na     4.115139    -0.434022     0.811524
Na     4.231867     0.143830     0.029037
Na    -0.388350     2.277049    -1.407681
Na    -0.697858    -2.609641    -0.044803
Na    -1.948592    -1.383370    -0.428441
Na    -0.033068     1.062445     2.396101
Na    -0.534427    -1.215904    -1.312292
Na     2.803393     1.180871     2.266876
Na    -0.323503    -0.598868    -2.073773
Na     1.355714     2.414774    -2.259535
Na     2.409286    -1.911973    -1.173323
Na     2.359248     2.006816     2.219827
Na     0.083463    -2.364229     1.715906
Na    -0.418921    -1.034110     0.114536
Na     1.189141    -0.082277    -0.136498
Na     1.820789    -1.077208     0.845558
Na    -0.756181    -1.037984     0.956272
Na    -1.551367     0.834715    -1.948204
Na    -0.987735     1.049767    -0.356091
Na    -0.391725    -2.760173     0.945441
Na     0.705595     1.780170    -2.495335
Na    -1.014807    -0.351640    -1.355811
Na     2.872581    -0.477227    -3.101955
Na     1.143065    -0.320851     2.214327
Na     0.459705     1.721396    -1.644178
Na     0.313769     2.599931    -2.107761
Na     0.386556     1.084319    -3.694275
Na     1.673474     2.943561     1.084340
Na     1.467715    -0.095862    -1.057801
Na    -0.302082    -0.391855    -0.677375
Na    -0.246872     0.946651     0.262797
Na    -2.103266    -0.880701     0.470753
Na     0.503173     2.066248     0.170033
Na     0.783148    -1.586941    -1.242635
Na     3.219106    -2.522349    -1.465984
Na     3.400908     0.607635     0.260017
Na     2.303082    -2.694745    -1.752052
Na     1.098286     0.689232    -0.586185
Na     0.976525    -2.296722    -2.806683
Na     3.363731    -0.318660     0.122461
Na     3.388115     1.756794    -2.624289
Na     3.038394     2.519273    -2.148389
Na     3.404065    -0.756045    -0.789460
Na    -1.479898    -2.161979    -0.343153
Na     1.851225     2.001902    -1.048614
Na    -0.245341     1.394849    -1.001371
Na     3.680510    -1.695041    -1.734961
Na     3.620128     1.381702     0.782250
Na     0.657992    -0.725716    -2.345856
Na     2.421991    -0.331467     1.163148
Na     0.832225    -2.410464    -0.923296
Na    -1.011366     1.490876     0.480944
Na     3.082831    -0.449585     1.843408
Na     1.073730    -2.502588     0.035852
Na     1.237298     1.434704     0.035498
Na     1.527621    -1.197200     1.818072
Na    -1.958152    -0.298336    -0.376579
Na     2.096787     0.007250    -2.816385
Na    -0.486261     0.208354     2.758738
Na     2.829995     0.991156     0.951904
Na     1.073716    -3.456388     0.495508
Na     4.321209     1.064929     0.069180
Na     2.164386     1.033235     0.271487
Na    -0.463474     2.705430    -0.515009
Na    -1.675851     1.174194    -1.111223
Na     0.955560    -0.644315    -3.272862
Na     4.141005     0.577241     0.890010
Na    -0.243150     1.828973    -2.344944
Na    -0.400744     1.797452    -0.170833
Na     1.879925    -2.764761     1.689032
Na     2.480046     2.140056    -2.887344
Na    -0.995530    -0.502513    -2.752598
Na     1.064336     3.241443    -1.894102
Na     1.986484     0.877758    -3.200551
Na     1.862625    -0.438108     2.928636
Na     1.415589     0.738204    -1.386825
Na    -1.396061     1.495843     1.375194
Na     3.300047     0.062479     1.017155
Na     2.367168    -1.291969    -2.762428
Na     1.006770     0.580023     1.259561
Na     1.168922    -0.958187     0.250120
Na     3.236727    -0.889394     0.964869
Na     1.261446    -1.244017     2.711259
Na     1.831546    -0.655399    -0.378349
Na     1.905266     2.867530    -1.492379
Na    -0.816912     1.175796    -2.536676
Na     0.479818     2.926504    -0.186576
Na    -0.745278     0.233261    -2.154757
Na     2.659452     0.428372     1.686315
Na     0.246176    -1.190305     2.868610
Na    -0.649795     0.932933     1.135327
Na     1.614067     2.034884     1.489933
Na     0.417122    -3.170100     1.217127
Na    -1.194313    -1.082109    -2.015670
Na    -1.235004    -0.436960     0.259333
Na     0.416279     0.351888     0.057601
Na     1.596244    -3.037254    -1.146896
Na     3.597514     1.226600    -0.541488
Na     2.170087    -0.404635     2.070791
Na     1.108747     0.915528    -2.983458
Na     3.582112     2.140843    -0.955687
Na     1.716480    -2.279838    -0.530868
Na     3.284044    -1.751225     1.398307
Na     1.483057     1.307927     0.869842
Na     1.122814    -1.540018    -2.155591
Na     4.295690    -0.364577    -0.859324
Na    -1.165894    -1.096662     1.834363
Na     2.524274     1.327116    -2.437167
Na     0.353821     2.092846    -0.791611
Na     0.198841    -3.098969     0.207416
