201

Pd      8.474957     12.584164     16.665012
Pd     14.583108     12.602630     14.648686
Pd     10.492140     16.692592     14.638489
Pd     12.528568      8.501324      8.535462
Pd     18.658566     12.582777     14.618088
Pd      8.478847     12.581030      8.562768
Pd     10.493926     16.696299     10.551877
Pd     14.581822     16.699026     10.551698
Pd      8.477650      8.491653     12.591729
Pd     14.584665      8.510957     14.648149
Pd     14.557553     12.579297     18.761335
Pd     10.508140     12.580448      6.491990
Pd     10.504161     12.601232     10.579596
Pd     12.532508     14.632671     18.773534
Pd      6.421702     12.582195     14.621946
Pd      6.407679     10.534860     12.592748
Pd     12.528354      6.425675     14.671951
Pd     18.662724     12.583908     10.566866
Pd     14.579970     12.590997     10.576055
Pd     18.677407     10.540133     12.585008
Pd     14.582311     16.697515     14.635136
Pd      6.419569     12.580625     10.577543
Pd     12.529096     18.781344     14.646457
Pd     16.595302     12.586114      8.551608
Pd      6.408359     14.635002     12.592349
Pd     10.502462     12.600838     14.648026
Pd     10.514246      8.517054     10.559731
Pd     12.528679     10.536852      6.466122
Pd     16.597131     12.588057     16.668562
Pd     10.487162      8.509727     14.656535
Pd     10.506037     12.575698     18.755788
Pd     12.531386     18.795856     10.520933
Pd      8.473472     16.711123     12.587622
Pd     12.517760      6.434015     10.536398
Pd     14.557395     12.585596      6.483400
Pd     12.531096     14.644823      6.466619
Pd     18.671874     14.639139     12.589093
Pd     16.601154     16.716851     12.583287
Pd     12.530490     10.533830     18.783806
Pd     16.608096      8.493008     12.597961
Ag     20.599406      8.501426     12.578965
Ag     16.534334     12.574419      4.522738
Ag     10.513026      4.407121     10.579895
Ag     10.506040     10.571076     16.687573
Ag     12.539898     12.593135     16.748324
Ag     18.626745     16.692554     14.615687
Ag     12.544034     14.646265     14.644275
Ag     10.482865     18.756555      8.509173
Ag     10.496461     14.668624     12.605451
Ag     10.515333     18.745966     12.579125
Ag     18.626814     14.626849     16.655611
Ag     10.514035      6.468813     12.594654
Ag     14.571391      6.446097     16.672336
Ag     12.531141     10.555403     10.571574
Ag     16.579498     20.805783     12.567307
Ag      8.467459      8.479583      8.528146
Ag     10.501353      6.474803      8.545830
Ag     14.549049      6.456954     12.613123
Ag     16.592721      8.472629     16.678961
Ag     12.525077     18.769723      6.458208
Ag     16.651050     12.595996     12.600404
Ag     14.567905     10.571958     16.689944
Ag     10.484348     18.748886     16.658199
Ag     16.586093     14.623500     18.713442
Ag     14.568172      8.489233      6.501274
Ag     18.599990     12.578941      6.537127
Ag     20.622693     12.575542      8.585642
Ag     12.524300      4.453439     16.663136
Ag     10.480980     16.702796     18.728958
Ag     16.593718     16.711710     16.672686
Ag     18.605121      6.436551     12.585636
Ag      8.467218     18.738380     14.610097
Ag      8.470243     10.536666      6.518224
Ag      8.468528     10.532250     18.709880
Ag     12.534898      8.500394     16.660932
Ag     12.522969      4.396502     12.586838
Ag     14.535653     10.544877     20.754156
Ag     10.521010     20.791802     14.587477
Ag      6.441099     16.685891     14.616356
Ag     12.539062     12.596855      8.492698
Ag      8.473053     14.626810     14.621616
Ag     12.523405      8.490094     20.711147
Ag     20.647077     10.550049     14.595870
Ag      6.435406     10.531247      8.550506
Ag     12.540677     10.563004     14.656926
Ag      6.437347     14.621784      8.547301
Ag     10.508385     14.611545     16.685450
Ag     16.607581     10.561670     10.573912
Ag      4.469539      8.499561     12.584444
Ag     12.527027     12.575541     20.769974
Ag     10.522825      4.416246     14.599863
Ag     12.520252      6.459892      6.505740
Ag     18.624995      8.483220     10.543553
Ag     16.606417     14.631927     14.621883
Ag     16.587559     14.627631      6.501729
Ag      8.470588     20.794420     12.568859
Ag     12.535032     16.708457      8.557188
Ag      6.440219     16.685841     10.549743
Ag     14.521163      4.402437     14.609443
Ag     10.517625     14.600193     20.733378
Ag     14.549768     18.750689     12.577573
Ag     14.531004     14.606931      4.495153
Ag      8.471841     14.617956     18.703530
Ag      8.475592     14.628788     10.580969
Ag      4.447805     12.573970     16.595199
Ag     10.477408      8.471253     18.741698
Ag      8.471854     14.616644      6.520203
Ag     14.530986     10.555790      4.491553
Ag     10.483893      6.445888     16.674454
Ag     16.593020     18.745029     14.611361
Ag      8.474100     10.557083     14.625540
Ag     16.609434     10.560266     14.627866
Ag     12.535931     16.698936     16.650009
Ag     18.608274     18.756519     12.575044
Ag      8.435575     12.593272     12.604934
Ag      8.505942     12.568362     20.703163
Ag     12.524539     16.668995     20.694140
Ag     16.592577      6.450241     14.630052
Ag      4.438277     12.570976      8.608924
Ag     10.518581     10.562384      8.547775
Ag     14.577214     16.707535     18.734829
Ag      4.423732     10.552443     14.593593
Ag     18.598173     12.572087     18.672662
Ag     14.578779     16.712969      6.470852
Ag      6.443887      8.487879     14.622176
Ag     12.538813     16.751858     12.593687
Ag     10.498077     10.539853     12.616225
Ag     10.489078      8.494471      6.498855
Ag     20.646646     14.613891     10.572710
Ag     12.526151     18.760817     18.721483
Ag     14.586641     10.549654     12.626521
Ag     14.525025      4.425096     10.581428
Ag     12.522403     20.753602      8.501806
Ag     20.642033     14.607878     14.599201
Ag     16.594017     18.751979     10.541644
Ag     12.520127      4.451233      8.541998
Ag      8.510359     12.575647      4.535664
Ag      8.477874      4.409865     12.580538
Ag     14.526300     20.810996     10.560855
Ag     14.589192     14.668449     12.603487
Ag     14.559749      6.457279      8.522945
Ag     14.573212     18.762325      8.509003
Ag     16.591580     10.534347      6.502996
Ag     12.543891     14.645434     10.575241
Ag     18.631053      8.486251     14.625446
Ag      6.440473      8.485880     10.554075
Ag     12.522700      6.426678     18.732573
Ag     12.524784     20.739266     16.646913
Ag     10.517759     14.600745      4.506301
Ag     14.569401     14.615693     16.685059
Ag     10.479267     16.710248      6.475353
Ag      8.468659      6.456206     14.620354
Ag     16.626130      8.454193      8.488894
Ag     14.525126     20.792845     14.583617
Ag     16.569787      4.403909     12.592020
Ag     20.650372     12.583974     12.585903
Ag     18.629376     10.530895     16.657421
Ag      8.480337     10.553716     10.586845
Ag      8.466549     18.742052     10.543738
Ag     14.573986     18.752501     16.658221
Ag      4.425755     14.605415     14.596502
Ag     16.605571     14.632245     10.574519
Ag     18.628114     16.694419     10.545747
Ag     12.524527     20.839289     12.573682
Ag     18.636251     10.530346      8.531881
Ag      4.469860     16.655458     12.579703
Ag     16.588649     10.534422     18.716419
Ag     12.525407      8.461140     12.637350
Ag     14.530716     14.602816     20.745720
Ag     10.509616     14.617677      8.539975
Ag     12.527633     12.580137      4.488055
Ag      6.451906     12.574603      6.557318
Ag      6.453113      6.439388     12.584070
Ag     20.660995     10.548168     10.576682
Ag      6.450109     18.746650     12.574815
Ag     14.578620      8.471373     18.744440
Ag     16.609256      6.433127     10.541497
Ag      6.437743     14.624519     16.649190
Ag     12.541946     12.603201     12.612787
Ag      6.455905     12.569369     18.662332
Ag     16.592246     16.716150      8.510279
Ag     20.601601     16.663553     12.575898
Ag      8.465620      8.474389     16.680144
Ag     18.629241     14.632330      8.528870
Ag      8.469735     16.705387     16.667241
Ag      4.418953     14.603388     10.591083
Ag      4.428725     12.579980     12.594238
Ag     12.523290      8.512815      4.522104
Ag     14.566078     14.619744      8.536030
Ag     10.512755     10.544374     20.749045
Ag     12.525602     16.659799      4.518568
Ag     10.519285     20.800415     10.558716
Ag      8.472742      6.458029     10.556116
Ag      4.414882     10.547680     10.593930
Ag     20.615215     12.573742     16.603204
Ag     10.515257     10.557334      4.496353
Ag     14.556186      8.503145     10.568420
Ag     14.556902     10.567428      8.533615
Ag      6.435815     10.530033     16.652870
Ag      8.469717     16.707460      8.516269
Ag     16.541422     12.570549     20.712822
201

Ag     19.778015      1.279514    -11.916846
Ag     11.428871    -11.248506     -9.343079
Ag     12.455245     -2.058356    -12.914609
Pd     23.567006     -3.682207     -7.381739
Ag     22.908307     -3.878907     -3.279476
Ag     21.958857     -6.805320    -17.892585
Ag     24.879174     -3.074227     -5.069712
Ag     14.303465     -5.235081     -2.644599
Ag     26.067353     -2.732149    -12.920368
Ag     17.759932     -2.132167    -18.356480
Ag     21.239602      2.039872     -9.534924
Ag     19.846245    -11.882637     -3.919919
Ag     16.544513     -2.326516    -10.479841
Ag     17.195450     -8.744753    -10.460107
Ag     12.828383      0.423171     -8.817391
Ag     19.416050     -1.399407    -16.032700
Ag     16.537755      2.106020     -8.235100
Ag     10.848070     -9.392368    -11.332253
Ag     26.257654     -9.249829     -9.107112
Ag     21.843617     -6.510806     -3.499688
Ag     15.620455     -4.981592    -10.651093
Ag     24.111442    -10.205395     -7.385628
Ag     18.030655     -3.685418     -1.942321
Ag     21.020904     -7.214076     -9.936737
Pd     18.695675     -1.515656    -12.107517
Pd     19.956727     -7.707905    -16.351369
Ag     18.846822    -10.514962    -16.424469
Pd     13.977859     -7.830848     -6.804817
Ag     20.148296     -2.840829     -3.632972
Ag     14.363874      1.119592     -6.372723
Pd     18.307143     -4.127252    -16.351036
Pd     21.445559     -9.163264     -7.852373
Pd     16.274570    -11.441199    -10.613070
Ag     25.664338     -2.816806     -8.929440
Ag     20.026774    -14.468995    -12.251541
Ag     14.137665    -10.388587    -15.114094
Ag     10.214469     -2.903146    -11.192569
Ag     15.055705     -5.193961     -6.648898
Pd     20.336995     -5.283081    -12.016075
Ag     16.011623     -9.038029     -2.386339
Ag     21.498886     -7.006683    -13.949936
Ag     22.703950     -8.867193    -15.872745
Ag     26.090055     -4.801352     -6.975438
Pd     20.381719    -11.836816     -8.030587
Pd     20.194845     -0.757671     -9.812011
Ag     19.290561     -3.408167     -9.955574
Ag     11.439416     -4.773694    -13.244385
Ag     14.507925     -1.246582    -14.677486
Ag     12.240584     -4.028094     -7.016604
Ag     22.303286      0.223745    -11.410433
Ag     21.451608     -2.658185    -11.671717
Pd     16.539075     -4.481839     -4.172023
Ag     22.870398     -8.366152     -5.401712
Ag     19.306349    -14.484301     -8.246496
Ag     18.187996      0.472850    -14.232948
Ag     16.827419    -11.299802    -14.723368
Ag     21.580515    -13.581416     -9.907670
Ag     23.600345    -12.678752    -11.608440
Ag     16.974487      0.268201     -6.177787
Ag     17.641814     -6.328578     -6.112859
Ag     15.679180     -7.543616    -18.735871
Ag     17.808363    -15.354043    -10.451620
Ag     17.641942     -4.245720    -12.239944
Ag     11.265448     -6.884021     -7.222410
Ag     14.773414     -0.645743     -4.316777
Ag     12.872133     -6.136900     -4.854665
Pd     24.023476     -3.560120    -11.314366
Ag     15.089441     -9.746659     -8.783752
Ag     20.736307     -4.780504     -1.687757
Ag     19.499508     -5.865591    -18.291215
Ag     13.457456      0.666109    -12.759091
Ag     16.818146     -4.877104    -18.678176
Ag      9.686780     -7.629124     -9.460709
Ag     18.693625     -8.141298     -8.205508
Pd     19.848621     -5.305416     -7.940712
Ag     21.703020      0.065496     -7.332636
Pd     15.149246     -3.179711    -12.647122
Ag     22.051460     -4.541583     -9.533394
Ag     14.042727    -12.296568     -8.873655
Ag     18.512388     -8.570920    -18.455697
Ag     21.543064    -11.563969    -16.023616
Ag     14.720588     -5.664490    -16.947978
Ag     24.591335    -10.000492    -11.491900
Ag     27.197824     -6.556507     -8.801952
Ag     25.205496     -5.370745    -13.233161
Ag     15.484148     -2.680148     -2.383488
Ag     10.831513     -4.853368     -9.290062
Ag     14.001230     -5.909087    -12.983327
Ag     10.359597     -9.403578     -7.389601
Pd     16.669210     -6.935808    -12.500228
Ag     20.394411     -3.244752    -17.999642
Ag     12.572679    -13.102604    -11.191723
Ag      9.388187     -5.692872    -11.540510
Ag     13.443337     -7.955675     -2.900111
Ag     19.730871     -7.479552     -1.878612
Pd     22.085321     -9.007242    -11.744545
Ag     19.840582     -3.320941    -13.979629
Pd     24.529041     -5.445134     -9.174718
Ag     15.599418      1.540011    -14.574858
Ag     19.083706      1.012437     -7.757037
Ag     18.901961     -6.044744    -14.400219
Ag     15.711292     -3.025775    -16.681854
Ag     19.917728     -9.874522    -10.180329
Ag     22.397375     -6.332854     -7.622578
Ag     22.249801     -1.964347     -5.439004
Ag     17.188138     -2.271929    -14.462984
Ag     24.662378     -3.551815    -15.399591
Ag     17.584027      0.313280    -10.168607
Ag     19.374686    -12.385015    -14.256078
Pd     18.259806    -10.724665    -12.432988
Ag     15.270290    -14.147280    -10.922206
Ag     16.812071    -13.459977     -8.670829
Ag     17.123381      2.225275    -12.161721
Ag     22.549128    -10.924163     -9.658165
Ag     14.461816     -9.872231     -4.753292
Ag     10.329933     -7.355778    -13.504370
Ag     17.047836     -6.457572     -2.116444
Ag     18.179411     -6.177080    -10.186585
Pd     17.384678     -6.676947    -16.559591
Pd     16.035685     -2.550864     -6.288697
Ag     15.003199      1.392167    -10.437677
Ag     20.243721     -7.200287     -5.854190
Ag     14.045349     -1.255349    -10.698053
Ag     23.057482     -4.224048    -17.561032
Ag     18.955320    -12.648086    -10.263383
Ag     25.095794    -11.998060     -9.406513
Pd     14.428043     -3.313551     -8.688523
Ag     13.635005     -8.399592    -17.112069
Ag     17.165260    -10.956361     -4.403391
Pd     16.058640     -0.429757    -12.559177
Ag     18.664201      2.922392     -9.919040
Ag     19.427588     -7.931060    -12.243997
Pd     15.416225     -0.640885     -8.386543
Pd     22.452790     -4.404947    -13.585827
Pd     20.902357     -5.193325    -15.935778
Ag     17.554904     -1.742207     -4.059995
Ag     24.418601     -1.058205     -7.078630
Ag     23.589781     -6.186490    -15.626561
Ag     20.906787    -13.625558     -5.991615
Ag     16.162497     -5.030533    -14.584374
Ag     23.030968     -6.327163    -11.579473
Pd     15.163733     -7.544829    -14.881885
Pd     16.063326     -7.078800     -8.423046
Ag     13.509797     -3.882682    -15.016232
Ag     23.067056    -12.839502     -7.744637
Ag     11.894214     -8.695545     -5.165980
Ag     17.387037    -13.282144    -12.590565
Ag     16.723193     -0.327771    -16.397927
Ag     16.232904     -9.372792    -16.850612
Ag     18.630846     -3.517751     -5.937917
Ag     12.536165     -6.456707    -15.243319
Ag     20.537521     -9.655990    -14.002990
Ag     19.210119     -9.960321     -6.168942
Pd     18.106900     -8.236858     -4.192688
Ag     24.984010     -1.029228    -11.056237
Pd     21.369564     -4.647098     -5.682307
Ag     12.931630    -10.543975     -6.953473
Ag     13.456565     -5.887152     -8.904929
Pd     20.953789    -11.728968    -12.127513
Ag     12.101271    -11.208215    -13.284576
Ag     16.673504     -8.992907     -6.350698
Ag     20.773337     -2.590519     -7.646030
Ag     21.947214    -10.986316     -5.785656
Ag     18.121331     -1.548122     -8.073027
Ag     17.159892     -4.394674     -8.259249
Ag     26.609374     -4.712837    -10.901965
Ag     13.415155     -1.525212     -6.796086
Pd     11.962556     -6.690791    -11.276308
Pd     19.064057     -5.577937     -3.920709
Ag     14.685592    -12.231014    -12.940476
Ag     21.033272     -9.644050    -18.012471
Ag     11.414377     -9.139804    -15.400617
Pd     17.736487    -10.783718     -8.397313
Ag     17.860349     -8.599504    -14.479949
Pd     13.595115    -10.347060    -11.043618
Ag     19.605326     -0.738380     -5.699354
Ag     20.809780     -9.163373     -3.655186
Ag     23.093526    -10.907113    -13.800616
Ag     13.867718     -3.369746     -4.536097
Ag     22.131600    -13.398002    -13.914271
Ag     25.610528     -7.313100    -11.191669
Ag     23.975955     -5.598867     -5.165777
Ag     15.705986    -11.676155     -6.616447
Ag     23.801411      0.769813     -9.159631
Ag     24.162076     -8.171772    -13.455727
Pd     15.483751     -7.065315     -4.491215
Pd     12.976662     -8.482726    -13.086986
Ag     11.758430     -2.139118     -8.938614
Ag     14.485386     -7.709542    -10.789415
Ag     23.446476     -1.693103    -13.430915
Pd     22.928423     -1.692601     -9.457438
Ag     18.183546    -12.684362     -6.331726
Ag     18.676719    -10.113309     -2.047125
Ag     11.257436     -0.314527    -11.124052
Pd     12.916445     -4.062823    -10.991560
Pd     23.604488     -8.292340     -9.422133
Ag     20.766456     -0.531593    -13.794004
Ag     25.014211     -7.578809     -7.164044
Ag     21.917158     -2.355548    -15.696161
Ag     15.653929     -9.568186    -12.852851
Pd     12.421409     -8.584710     -9.060071
