200

Co   -0.627514    -0.387733    -2.454810
Co    2.223620     1.086680    -0.865968
Co    1.164810    -2.176060     1.489440
Co    1.904100    -0.780911     0.299560
Co   -0.490991    -0.088481     1.271450
Co   -0.457819    -1.660530    -0.485655
Co    2.601000    -0.814289    -1.251840
Co   -1.312510     0.258679    -2.137120
Co    1.891910    -1.091100    -0.632903
Co    0.247393    -1.821420     1.343680
Co   -0.252616    -2.597990    -0.670103
Co    1.694010    -0.460423    -1.371440
Co    0.632998     2.158890     0.728249
Co    1.181000    -1.385520    -0.024351
Co   -0.894550     1.298360     2.582710
Co   -1.368730    -1.322030    -0.619539
Co   -2.080440    -1.921250    -0.940095
Co   -1.020460    -2.160700     1.810080
Co   -1.222300    -0.701345     0.951787
Co    2.622620    -0.182370     0.620969
Co    0.094088    -2.693640     0.249304
Co    0.607275    -1.920560     2.251610
Co    2.435940     0.769434     0.813734
Co    0.264928    -1.677910    -2.028960
Co    0.792728     0.521988    -2.728780
Co    1.526940    -1.470780     0.889349
Co   -0.648279    -0.714621    -0.294931
Co   -0.689858     0.612508     1.928220
Co    0.076166    -1.023680    -2.754680
Co    0.787206    -0.427174    -2.442520
Co   -1.439280     3.119000    -1.100970
Co    1.715660    -2.418800     0.718267
Co    1.719930     0.169005     0.492535
Co   -0.108345    -1.747800     0.430585
Co    0.808778    -2.073940     0.567081
Co   -0.316911     1.306940     1.342240
Co   -0.777637     1.876890    -0.206175
Co    2.625370    -0.493312    -0.316114
Co   -1.264540     1.495910    -1.470940
Co    0.054691    -0.878579     1.534120
Co    2.426320     0.140274    -1.058010
Co   -0.107709    -2.505200     1.932880
Co   -0.985594     2.589550     0.440132
Co   -2.056930    -0.986550    -1.228680
Co   -0.583665     1.165700    -0.858473
Co   -0.294315     2.257060     1.059170
Co    1.494140     0.168747    -2.124710
Co   -1.382780    -2.089640     0.892885
Co    1.547390     1.744470    -0.547389
Co    2.796830    -1.135460     0.424905
Co   -1.070430    -0.075512     2.536100
Co   -1.216810     2.442480    -1.759730
Co    0.572915     0.430052     2.526800
Co    0.846074     2.075370    -1.166020
Co    0.064135    -0.727469    -1.832190
Co   -0.816154     0.936689     0.078953
Co   -1.761790     0.094124     0.692053
Co    1.699130    -0.785530    -2.297600
Co   -1.591230    -1.386480     1.554150
Co    0.858222     2.379760    -0.222582
Co    1.899770    -1.412110    -1.573510
Co   -0.550664     2.106450    -1.149100
Co   -0.469917    -2.439950     1.029310
Co   -1.221400     2.347110     1.375360
Co    1.868830    -1.576770     1.802430
Co    0.142897     1.775940    -0.538038
Co    0.783853    -0.120227    -1.506200
Co    0.822864     1.752590    -2.097490
Co    0.826592     1.137440    -0.862975
Co    0.258182    -1.367620    -1.095230
Co    1.156700     0.422575     1.273320
Co    0.980170    -0.751250    -0.763263
Co    1.376180    -2.624050    -1.146240
Co   -0.086544     1.550840     0.406278
Co    0.994000    -0.437423     0.167410
Co   -1.546560     0.324923    -0.250853
Co   -1.346670    -0.688666    -1.848070
Co    0.264618    -1.050210    -0.160212
Co    0.118234     1.161270    -2.422140
Co    0.795332     0.194574    -0.572279
Co   -1.905110     2.675500     0.747821
Co   -1.408550     0.009448     1.604940
Co   -0.529176    -0.851908     2.783730
Co    1.873080     1.022810     1.594370
Co   -1.342990    -0.384480    -0.906060
Co    1.493720     0.325495     2.185200
Co    0.777014    -0.273767     1.860370
Co    2.439210     0.457166    -0.122275
Co   -0.649605    -1.329630    -2.156990
Co    2.089120    -2.030620    -0.839515
Co   -2.649190     1.149200     0.731811
Co    2.199920     0.764381    -1.800300
Co   -1.740440     1.035600     0.407993
Co   -1.013240     1.645900     0.735616
Co    2.422360    -1.818220     1.025460
Co   -0.298297    -0.796651     0.618310
Co   -1.511800     1.260610    -0.536969
Co    1.520860     0.802088    -0.249096
Co    0.953343     1.125890     1.937740
Co   -1.960520     0.807207     1.355180
Co   -0.359566     0.516844     2.847460
Co   -1.370680    -1.629320    -1.548930
Co   -0.656013    -1.027860    -1.227290
Co    0.124698     1.460390    -1.474810
Co   -1.247890     1.405120     1.676080
Co    1.505970     0.485896    -1.184210
Co   -2.478840    -0.507802     0.371626
Co    1.553990     2.046760     0.394166
Co   -2.662180     0.207872     1.030150
Co   -1.172750    -2.262040    -0.807246
Co    0.460833    -1.993570    -0.348404
Co    0.066269    -0.418302    -0.899924
Co   -2.386300     2.319560    -0.496295
Co   -0.628336    -0.086949    -1.517100
Co   -0.532486     1.995090     1.988800
Co    0.616355    -1.129350     0.753153
Co    1.174110    -1.694650    -0.955069
Co   -0.059716     2.492340     0.113367
Co   -0.563161     1.794840    -2.104340
Co    0.454889    -2.763870     1.168090
Co    2.092210    -1.736210     0.106423
Co    0.025976     1.220140     2.267800
Co   -0.844397    -0.006884     0.359315
Co    0.463045    -2.311010    -1.286990
Co    2.257220    -0.876754     1.220360
Co   -2.238620     0.664926    -0.867950
Co   -1.309660     0.555429    -1.192050
Co    1.106670    -0.375331     2.765460
Co   -0.456356    -1.976620    -1.422960
Co   -1.773850    -0.669632     2.211510
Co    1.502750     1.108790    -2.403550
Co   -0.825020    -2.358700     0.110910
Co    2.236800     1.402280     0.071940
Co    0.965671    -1.218420     1.666100
Co   -1.939960     1.748930     1.062110
Co    1.529050     1.112100     0.682699
Co   -0.667026    -1.486080     1.211650
Co    0.806306     0.507074     0.358961
Co   -1.269640     1.203080    -2.413860
Co    2.071900     0.074306     1.412010
Co   -1.041110     0.703223     1.015820
Co    1.307720    -1.317310     2.568080
Co    1.007330    -3.006710     0.390789
Co    0.091675     0.213971    -2.115350
Co    1.348340    -0.524377     1.084770
Co    2.790620    -1.434750    -0.511778
Co    2.242500     1.709770     1.002250
Co    0.078694    -0.103532     0.031995
Co   -1.568810    -0.617078     0.034440
Co    0.136463     2.388780    -1.773980
Co   -0.144886    -0.174403     2.186390
Co   -1.684820     2.906160    -0.179109
Co   -1.697830     1.967590     0.115263
Co   -1.944790    -1.307280     0.634999
Co   -2.138550    -0.596602     1.294230
Co   -1.923450     1.852050    -2.072940
Co    0.157148     2.704000    -0.839619
Co    0.235164     0.522182     1.607010
Co    0.837022     1.447100     0.074149
Co   -2.199050     1.607240    -1.152520
Co   -1.736720    -2.008600    -0.027508
Co    0.431267    -0.184011     0.946167
Co   -1.604820     0.700678     2.273740
Co   -1.468520     2.192720    -0.820211
Co   -0.115864     0.604834     0.687064
Co    0.670761    -2.921840    -0.529195
Co   -2.268500    -0.276951    -0.576729
Co    0.609935     1.212470     1.014100
Co   -2.433110     1.375750    -0.212822
Co   -0.311474    -1.568080     2.134750
Co    0.098178     0.522218    -1.181620
Co   -0.586369     0.562495    -2.734030
Co   -2.465910     0.434662     0.081449
Co   -2.283150    -1.219530    -0.287768
Co   -0.590609     0.855467    -1.798080
Co   -1.229060    -1.450970     2.457910
Co    1.714040    -0.143693    -0.441325
Co    2.397690    -0.182122    -1.978250
Co   -2.311570     0.109518     1.945020
Co    1.693590    -0.623378     2.000810
Co    0.186546    -0.263412     3.093910
Co    0.984439    -1.372180    -2.613120
Co    1.327360     1.812200     1.335240
Co    0.110621     0.838107    -0.248891
Co   -0.863414    -0.777353     1.863470
Co    0.976631    -1.064160    -1.693640
Co    1.384150    -2.331180    -0.211159
Co   -0.619433     0.225417    -0.577518
Co   -2.608700     2.085470     0.430025
Co    0.396979    -0.973624     2.452850
Co    1.532380     1.430310    -1.483630
Co    0.090986    -0.082434    -3.039430
Co   -1.021910    -1.406930     0.294349
Co    0.399392     1.908290     1.666310
Co    1.188390    -2.002880    -1.885920
Co   -2.025250    -0.042937    -1.518650
Co    0.808122     0.818424    -1.792620
Co   -2.141470     2.542460    -1.421430
Co   -0.755544     2.812570    -0.498382
Co   -1.986050     0.904548    -1.804840
200

Co     0.861068    -2.414479     0.266293
Co    -1.054292     1.147169     1.763568
Co    -0.059104    -3.339486    -0.588113
Co     0.066052     2.023751    -2.233996
Co     0.247084    -1.755427     0.830035
Co    -1.092217    -2.097649    -1.368230
Co    -0.752374     0.204930     1.493377
Co    -1.314420     2.040411     1.797076
Co     2.098144    -1.274808    -0.603972
Co     0.405206    -0.157721    -2.008180
Co     1.689818     0.263351     0.020380
Co     1.078499    -2.010207     1.092462
Co     1.574526    -0.806041    -0.125675
Co     1.157692    -1.089198     1.867380
Co     0.713832    -2.702500    -0.513736
Co     0.667402     1.228076    -2.714993
Co    -1.249455     1.929765    -1.000526
Co     0.071359    -2.977783     0.223278
Co    -1.443103    -0.450644     0.536610
Co     1.643987     2.618877     0.831100
Co    -1.427388    -1.168673    -0.016541
Co     0.162791    -2.046259    -1.764490
Co     1.923588    -1.353996     1.218065
Co     2.250451     0.838825     0.698374
Co     0.598586     1.960773    -0.909938
Co     0.303807     1.656241     0.662584
Co     0.193369    -0.977434     1.354716
Co    -1.222323     1.320825    -0.230630
Co    -0.119554     3.161665     0.061827
Co     1.776714    -0.362866     0.879689
Co    -1.402656    -2.146042     0.326896
Co    -2.247076    -1.109237     0.556153
Co     1.438738     0.477339     1.017347
Co    -1.929281    -2.646363     0.165034
Co    -0.365889     1.048219     0.138841
Co     0.627967     0.644546     1.581353
Co    -2.185840    -1.128646     1.423555
Co     0.110365     2.916333    -0.967106
Co     0.976134    -0.450110     2.435748
Co    -1.026007     0.062781    -1.203149
Co    -0.365178    -2.526927     1.590735
Co     0.815347     2.338909     1.131185
Co    -1.939476     1.537076     0.315702
Co     0.665307     2.955026     0.414387
Co     0.763472     0.980176    -1.146097
Co    -0.475905    -0.912430     2.893390
Co     1.993792     1.808395     0.696569
Co    -0.680518    -0.865019    -2.643984
Co    -0.054590    -1.213477    -0.446334
Co     1.493504     1.102554     0.233267
Co    -0.731674     0.345396     0.595935
Co     1.196872    -0.437137    -1.657238
Co     2.209824     1.462195    -0.186311
Co     0.285226    -0.950304     2.372272
Co     2.331090     0.096714    -1.115698
Co     0.204800    -0.690763     0.293803
Co     1.044307    -0.853879    -2.515029
Co    -0.154663    -2.326387    -1.066321
Co     0.285602    -0.870374    -1.407607
Co     0.110055     0.023072     1.059260
Co     0.575737     1.377006    -0.296343
Co    -0.001367     0.745931    -0.813380
Co    -1.613357    -0.210265    -0.421310
Co     2.647033    -0.052742     0.394451
Co     0.281803    -0.297492     2.843828
Co    -0.853164     2.682214     1.405061
Co     0.528222     0.032175    -1.287132
Co    -0.484068    -1.611713     1.356379
Co     0.544583     2.676944    -1.841595
Co    -0.147138     2.361751     1.670811
Co    -0.634586    -1.773534    -2.199068
Co    -0.547534    -2.743139    -1.934223
Co    -0.806482    -0.523640     0.021795
Co     0.132276    -0.157894     2.035909
Co    -2.416296    -0.104535     0.110048
Co    -1.608244     0.472898     1.181148
Co    -0.298644     0.365507    -1.735875
Co    -0.358739    -1.444992    -1.290181
Co    -1.406078     0.234277     2.034469
Co    -0.487845     1.711730     2.204283
Co     0.898991    -0.171826     1.310024
Co     0.060893    -1.194366    -2.115334
Co     1.413963    -0.127403    -0.879620
Co     0.716748    -1.334076    -0.035539
Co    -2.001349     1.580417    -0.702871
Co     2.308353     0.853090    -1.919170
Co     1.115743     0.019677    -2.497203
Co    -0.075516     2.577208     0.795442
Co    -0.460379    -0.059260    -2.499389
Co    -0.758554     1.875463     0.234201
Co     0.606750    -0.568496    -0.499546
Co     1.000525     2.055891     0.245606
Co    -1.724769    -1.448671    -0.913914
Co    -2.134778    -1.923721     0.927965
Co    -2.438413     0.681461     0.752975
Co    -0.652226    -0.649025     0.986384
Co    -2.531541     0.720534    -0.247873
Co    -0.718377     2.528618    -0.461074
Co    -0.418199    -2.375069     0.728321
Co    -0.058795    -2.047205    -0.233990
Co    -0.487333    -1.626686     2.351762
Co     0.618741     0.757658    -2.064040
Co    -0.587012    -1.450118     0.304414
Co    -1.594786     0.563406     0.253161
Co    -0.208423    -0.260967    -0.865727
Co    -1.427526     2.028370     0.744008
Co    -0.960365    -3.059990    -1.149172
Co     0.514431     0.806254     0.567629
Co     1.738340    -1.746515    -1.305624
Co    -0.966352     0.935144     2.611770
Co    -0.418036     2.331483    -1.387705
Co     1.047018     2.659115    -0.440021
Co    -2.050987     0.239933    -1.668920
Co     2.651241     1.176361    -0.977336
Co    -1.692529    -2.495772    -0.699100
Co    -1.476962    -0.591951     1.552618
Co     2.432539    -0.412742    -0.452599
Co    -0.924206    -1.778782    -0.576064
Co     0.917553     1.645265    -1.918065
Co     0.007871     0.109036     0.097829
Co    -0.672453    -3.497520     0.124905
Co     1.174045     1.510292     1.030929
Co    -1.051111    -0.822225    -0.953878
Co     1.581001     0.385256     2.035736
Co    -1.132881    -2.877550     0.711849
Co     0.911514    -1.556447    -1.900872
Co     1.481800     1.970445     1.656886
Co    -1.116324     0.567276    -2.070304
Co    -0.834672     0.365760    -0.408851
Co     1.409300     1.815511    -0.657958
Co    -0.630971    -2.604175    -0.099841
Co    -2.574873     1.001887    -1.258453
Co     2.043923    -0.801590    -1.337546
Co    -0.548173     0.047891     2.610248
Co    -0.293914     1.564555    -0.667318
Co    -2.384277     0.631916     1.807790
Co    -1.497466     2.178343    -0.217880
Co     0.088096    -0.603220    -2.985214
Co     1.708959     0.879764    -0.663793
Co     0.361507    -2.918930    -1.437478
Co    -2.290260    -0.849105    -0.485782
Co     0.433942    -2.547615     1.112474
Co     1.472255     0.552867    -1.536295
Co    -2.363329     0.074875    -0.813889
Co    -2.232521    -0.153928     1.135354
Co     1.709633    -1.657861     0.361534
Co    -0.571302     1.751544     1.274698
Co     2.571132    -0.583424     1.253539
Co    -1.029687     1.274317     0.779719
Co    -0.094010     0.612370     3.015742
Co     1.839270     2.371475     0.011153
Co    -0.581305    -0.682506     1.944253
Co     1.733600     1.503738    -1.511088
Co    -0.205961     0.811774     1.080540
Co     1.325432    -1.175402    -0.856585
Co     2.240108     2.121292    -0.929690
Co    -1.936487     1.367607     1.276385
Co     1.360667     1.133908    -2.386090
Co    -0.342408     1.087110    -2.422148
Co     2.302162     0.279416     1.432059
Co    -1.671359     1.267120    -1.656682
Co    -0.925637     1.032371    -1.118763
Co     2.444301    -0.935970     0.317203
Co    -2.284535    -1.726543    -0.090375
Co    -1.262102    -1.239912    -1.821002
Co     0.317231    -1.794302     1.627453
Co     0.115279     2.225507    -0.028696
Co    -1.648697     0.743814    -0.745332
Co     1.918467    -0.557613     1.861471
Co    -1.456924    -0.675474     2.407943
Co    -1.306992    -0.324376    -2.161190
Co     0.200502     1.590734     1.616524
Co    -0.853804     1.648397    -1.839838
Co     0.599557    -1.734418    -0.878389
Co     0.263890     1.525952     2.610121
Co     0.019284     1.327191    -1.584778
Co    -1.355221    -3.273397    -0.331727
Co     0.978396    -0.160627     0.386146
Co    -1.254098    -1.465916     1.800663
Co    -0.538507    -0.611719    -1.657408
Co     0.783005     0.506096     2.422332
Co    -1.293808    -1.330444     0.899501
Co     0.756647     2.169268     2.182712
Co    -1.823397    -0.575556    -1.277224
Co    -0.262335     0.738602     2.097634
Co     1.899726    -1.057027    -2.087417
Co     1.065140    -2.389436    -1.505434
Co     0.350575     0.435411    -2.886653
Co     1.162224     1.364869     2.082720
Co     1.848448     1.150756     1.396757
Co    -0.909697     2.921167     0.371971
Co    -2.274227    -0.369690     2.150018
Co     1.116507    -1.064388     0.841041
Co     2.029953    -0.131196    -2.033282
Co     1.391615    -2.088467    -0.490258
Co     2.551326     0.448328    -0.388575
Co     0.964203     0.542170    -0.286331
Co    -1.299984    -2.169628     1.316521
Co    -1.894661     1.157090     2.234628
Co     1.326708     2.272706    -1.254161
