405

Pd     11.972765     11.972756      5.858989
Pd     14.004206      9.952272      5.858897
Pd      9.952290     14.004192      5.858911
Pd     16.050819     16.050808      5.870440
Pd     18.076695     14.015333      5.867380
Pd     14.015345     18.076687      5.867394
Pd     11.957782      7.917909      9.944302
Pd     13.995829      5.858876      9.952261
Pd      7.917880     11.957777      9.944308
Pd      9.935648      9.935667      9.942522
Pd     14.000512     11.968394      7.921879
Pd     16.042258      9.944300      7.917904
Pd     16.028782     11.977226      9.938040
Pd     18.064369      9.942527      9.935640
Pd      5.858868     13.995828      9.952280
Pd      9.944319     16.042247      7.917925
Pd     11.968394     14.000508      7.921886
Pd     11.977219     16.028792      9.938067
Pd     13.999435     13.999456      9.923779
Pd     18.061356     16.048255      7.920188
Pd     20.089938     14.013749      7.910071
Pd     20.079814     16.048257      9.938637
Pd     22.132632     14.015349      9.923303
Pd      9.942537     18.064375      9.935675
Pd     14.013747     20.089950      7.910076
Pd     16.048257     18.061378      7.920196
Pd     16.048254     20.079862      9.938648
Pd     18.068789     18.068833      9.931210
Pd     14.015344     22.132646      9.923288
Pd      7.910024      7.910025     14.013710
Pd      9.923306      5.867345     14.015311
Pd     13.999529      7.921859     11.968384
Pd     16.027266      5.858938     11.972738
Pd     16.031636      7.921840     14.000500
Pd     18.047727      5.858853     14.004183
Pd      5.867321      9.923258     14.015310
Pd      9.938019     11.971267     11.977210
Pd     11.971262      9.938042     11.977209
Pd     11.966034     11.966042     13.999828
Pd     14.000586      9.923767     13.999445
Pd     18.061981     11.977233     11.971255
Pd     20.082081      9.944295     11.957760
Pd     20.078119     11.968382     13.999526
Pd     22.141069      9.952246     13.995799
Pd      5.858931     16.027263     11.972746
Pd      7.921833     13.999525     11.968384
Pd      7.921827     16.031652     14.000511
Pd      9.923757     14.000603     13.999444
Pd     13.999800     16.034011     11.966078
Pd     16.033960     13.999849     11.966060
Pd     16.033953     16.034025     14.000224
Pd     18.076235     13.999472     14.000576
Pd     22.129563     16.050828     11.949171
Pd      5.858836     18.047740     14.004195
Pd      9.944307     20.082132     11.957774
Pd     11.977218     18.062017     11.971273
Pd     11.968377     20.078196     13.999525
Pd     13.999425     18.076308     14.000600
Pd     18.061349     20.079860     11.951772
Pd     20.079797     18.061385     11.951769
Pd     20.089911     20.089957     13.986267
Pd     22.132603     18.076682     13.984657
Pd      9.952263     22.141140     13.995801
Pd     16.050824     22.129593     11.949190
Pd     18.076708     22.132651     13.984666
Pd      9.938629      7.920129     16.048231
Pd     11.949214      5.870372     16.050795
Pd     11.951783      7.920116     18.061361
Pd     13.984691      5.867321     18.076700
Pd     18.055703      7.917874     16.042245
Pd      5.870364     11.949184     16.050797
Pd      7.920116      9.938621     16.048226
Pd      7.920122     11.951783     18.061353
Pd      9.931195      9.931196     18.068794
Pd     14.000208     11.966040     16.033995
Pd     16.022815      9.938025     16.028771
Pd     16.022811     11.971252     18.061995
Pd     18.057472      9.935640     18.064357
Pd     22.140971     11.972738     16.027250
Pd      5.867323     13.984683     18.076697
Pd      9.938023     16.022837     16.028766
Pd     11.966040     14.000232     16.033987
Pd     11.971250     16.022835     18.061980
Pd     14.000587     14.000603     18.076259
Pd     18.061965     16.028794     16.022809
Pd     20.078111     14.000502     16.031635
Pd     20.082065     16.042248     18.055703
Pd     22.141053     14.004182     18.047713
Pd      7.917873     18.055723     16.042238
Pd      9.935647     18.057501     18.064350
Pd     14.000497     20.078195     16.031639
Pd     16.028763     18.062031     16.022819
Pd     16.042238     20.082136     18.055699
Pd     18.064336     18.064384     18.057474
Pd     11.972743     22.141053     16.027259
Pd     14.004199     22.141152     18.047719
Pd     13.986295      7.910012     20.089958
Pd      9.938632     11.951781     20.079829
Pd     11.951786      9.938614     20.079846
Pd     11.949208     11.949182     22.129571
Pd     13.984683      9.923254     22.132630
Pd     18.055692     11.957763     20.082113
Pd      7.910031     13.986292     20.089937
Pd      9.923298     13.984674     22.132606
Pd     13.999509     16.031651     20.078147
Pd     16.031625     13.999510     20.078150
Pd     16.027250     16.027260     22.141026
Pd     18.047713     13.995821     22.141098
Pd     11.957771     18.055721     20.082103
Pd     13.995810     18.047746     22.141118
Ag     11.923934      7.844556      5.816664
Ag     14.000008      5.838660      5.838669
Ag     13.999310      7.942029      3.901582
Ag     16.048170      7.905846      5.875532
Ag      7.844568     11.923901      5.816681
Ag      9.887403      9.887409      5.817041
Ag      9.951422     11.977422      3.874806
Ag     11.977431      9.951411      3.874794
Ag     13.988476     11.967801      3.789134
Ag     16.028323      9.939430      3.826343
Ag     16.023525     11.940976      5.870383
Ag     18.106288      9.885040      5.820937
Ag     18.061370     11.975564      3.852888
Ag     20.114619     11.951123      5.862118
Ag      5.838988     14.000166      5.838859
Ag      7.942092     13.999293      3.901553
Ag      7.905913     16.048215      5.875562
Ag      9.939457     16.028303      3.826368
Ag     11.967823     13.988460      3.789152
Ag     11.940996     16.023512      5.870411
Ag     13.978105     13.978094      5.872820
Ag     14.013394     16.034998      3.842023
Ag     16.035023     14.013374      3.842013
Ag     18.053606     16.034221      3.861603
Ag     20.064669     14.010769      3.892757
Ag     20.094150     16.051146      5.884622
Ag     22.101758     14.015703      5.898221
Ag      9.885065     18.106259      5.820979
Ag     11.975592     18.061342      3.852905
Ag     11.951147     20.114588      5.862143
Ag     14.010784     20.064646      3.892757
Ag     16.034231     18.053588      3.861605
Ag     16.051153     20.094144      5.884619
Ag     18.077868     18.077866      5.877896
Ag     14.015708     22.101744      5.898199
Ag     11.971702      3.826313      9.939414
Ag     14.000716      3.901549      7.942030
Ag     16.022595      3.874757      9.951369
Ag      7.856789      7.856795      9.882346
Ag      9.893734      5.820923      9.885030
Ag      9.924184      7.896248      7.901619
Ag     11.951858      5.875534      7.905848
Ag     14.000019      7.898155      7.898156
Ag     16.076089      5.816666      7.844539
Ag     16.029680      7.869486      9.935533
Ag     18.112619      5.816996      9.887375
Ag     18.075841      7.901611      7.896235
Ag     20.103749      7.901599      9.924160
Ag      3.826330     11.971742      9.939423
Ag      5.820881      9.893722      9.885029
Ag      5.875504     11.951839      7.905839
Ag      7.896231      9.924180      7.901617
Ag      9.935536     11.970362      7.869506
Ag     11.970363      9.935547      7.869501
Ag     11.959244     11.959252      9.933173
Ag     14.000035      9.927609      9.927594
Ag     18.065637     11.944518      7.904222
Ag     20.143202      9.882351      7.856799
Ag     20.095785     11.944511      9.934378
Ag     22.179041      9.885055      9.893728
Ag     22.137884     11.951118      7.885391
Ag     24.147191     11.975572      9.938652
Ag      3.901549     14.000725      7.941986
Ag      3.874729     16.022582      9.951394
Ag      5.816707     16.076079      7.844660
Ag      7.898206     13.999996      7.898238
Ag      7.869502     16.029659      9.935569
Ag      9.927596     14.000025      9.927612
Ag     13.998946     16.036944      7.892573
Ag     16.036936     13.998946      7.892562
Ag     16.024066     16.024088      9.937511
Ag     18.068871     13.995315      9.931152
Ag     22.115385     16.051166      7.905843
Ag     24.107191     14.010766      7.935329
Ag     24.138461     16.034214      9.946405
Ag      5.817003     18.112603      9.887408
Ag      7.901643     18.075832      7.896275
Ag      7.901629     20.103749      9.924189
Ag      9.882384     20.143187      7.856840
Ag     11.944521     18.065629      7.904251
Ag     11.944515     20.095819      9.934407
Ag     13.995310     18.068909      9.931161
Ag     18.071572     20.096411      7.903593
Ag     20.096382     18.071579      7.903599
Ag     20.096380     20.096406      9.928427
Ag     22.122078     18.077844      9.922155
Ag      9.885052     22.179059      9.893747
Ag     11.951140     22.137875      7.885380
Ag     11.975584     24.147127      9.938619
Ag     14.010780     24.107235      7.935267
Ag     16.051153     22.115379      7.905819
Ag     16.034229     24.138398      9.946372
Ag     18.077865     22.122105      9.922125
Ag      7.935325      3.892731     14.010738
Ag      9.938644      3.852833     11.975546
Ag     11.965017      3.841926     14.013348
Ag     14.011574      3.789060     11.967759
Ag     16.032239      3.789047     13.988432
Ag     18.048607      3.874747     11.977392
Ag     20.057957      3.901541     13.999280
Ag      3.892728      7.935220     14.010743
Ag      5.898220      5.898162     14.015671
Ag      5.862058      7.885324     11.951089
Ag      7.885368      5.862071     11.951094
Ag      9.934376      7.904192     11.944473
Ag     11.976505      5.870343     11.940956
Ag     11.963112      7.892522     13.998923
Ag     14.021951      5.872740     13.978069
Ag     18.064475      7.869476     11.970348
Ag     20.155439      5.816637     11.923910
Ag     20.101800      7.898155     14.000002
Ag     22.161266      5.838842     13.999993
Ag     22.124444      7.905846     11.951827
Ag     24.098499      7.942078     14.000720
Ag      3.852795      9.938588     11.975536
Ag      3.841924     11.964963     14.013354
Ag      5.870317     11.976472     11.940971
Ag      7.904162      9.934375     11.944479
Ag      7.892502     11.963096     13.998924
Ag      9.931115      9.931134     13.995281
Ag     14.000031     11.968427     11.968416
Ag     16.040807      9.933183     11.959230
Ag     16.031631     11.968432     14.000016
Ag     18.072427      9.927587     14.000017
Ag     22.129626     11.941014     11.976492
Ag     24.173604      9.939413     11.971685
Ag     24.210800     11.967786     14.011526
Ag      3.789045     14.011564     11.967792
Ag      3.789057     16.032234     13.988439
Ag      5.872736     14.021934     13.978073
Ag      9.933183     16.040810     11.959252
Ag     11.968419     14.000052     11.968428
Ag     11.968416     16.031664     14.000025
Ag     14.000021     14.000044     14.000043
Ag     18.062488     16.024100     11.975958
Ag     20.107434     13.998945     11.963102
Ag     20.107417     16.036936     14.001088
Ag     22.127149     13.978081     14.021930
Ag     24.157925     14.013375     11.964982
Ag     24.157916     16.035001     13.986610
Ag      3.874714     18.048603     11.977406
Ag      3.901472     20.057964     13.999271
Ag      5.816679     20.155323     11.923891
Ag      7.869494     18.064459     11.970373
Ag      7.898251     20.101742     14.000002
Ag      9.927585     18.072460     14.000024
Ag     13.998935     20.107511     11.963110
Ag     16.024055     18.062555     11.975958
Ag     16.036918     20.107503     14.001091
Ag     18.068847     18.068910     14.004736
Ag     22.115336     20.094114     11.948851
Ag     24.138441     18.053577     11.965779
Ag     24.107174     20.064631     13.989212
Ag      5.839128     22.160811     13.999997
Ag      7.905867     22.124462     11.951771
Ag      7.941978     24.098444     14.000699
Ag      9.939406     24.173655     11.971685
Ag     11.940975     22.129653     11.976490
Ag     11.967795     24.210867     14.011531
Ag     13.978088     22.127227     14.021931
Ag     14.013388     24.157979     11.964970
Ag     16.035027     24.157985     13.986612
Ag     18.053614     24.138404     11.965768
Ag     20.094145     22.115382     11.948848
Ag     20.064711     24.107257     13.989212
Ag     22.101764     22.101763     13.984280
Ag      9.946410      3.861560     16.034183
Ag     11.965803      3.861553     18.053581
Ag     13.986658      3.841914     16.034997
Ag     16.024456      3.852785     18.061375
Ag     18.060584      3.826274     16.028310
Ag      5.884656      7.905875     16.051145
Ag      7.905837      5.884584     16.051120
Ag      7.903603      7.903591     18.071517
Ag      9.922154      5.877858     18.077846
Ag     14.001108      7.892509     16.036910
Ag     16.059059      5.870310     16.023517
Ag     16.055539      7.904168     18.065643
Ag     18.114980      5.820872     18.106279
Ag     20.094146      5.875491     16.048156
Ag     20.098393      7.896204     18.075841
Ag     22.183327      7.844557     16.076098
Ag      3.861552      9.946347     16.034196
Ag      3.861544     11.965779     18.053585
Ag      5.877864      9.922145     18.077855
Ag      9.937477     11.975946     16.024077
Ag     11.975945      9.937483     16.024078
Ag     11.975951     11.975951     18.062534
Ag     14.004754      9.931120     18.068885
Ag     18.066861     11.959242     16.040791
Ag     20.130482      9.935515     16.029667
Ag     20.130477     11.970342     18.064483
Ag     22.182955      9.887386     18.112613
Ag     24.125168      9.951404     16.022571
Ag     24.125166     11.977411     18.048575
Ag      3.841928     13.986634     16.034993
Ag      3.852773     16.024444     18.061369
Ag      5.870310     16.059057     16.023515
Ag      7.892499     14.001107     16.036912
Ag      7.904171     16.055536     18.065617
Ag      9.931120     14.004757     18.068870
Ag     14.000023     16.031668     16.031631
Ag     16.031620     14.000055     16.031623
Ag     16.040779     16.040816     18.066847
Ag     18.072416     14.000019     18.072439
Ag     22.129610     16.023512     16.058991
Ag     24.210797     13.988449     16.032188
Ag     24.173601     16.028296     18.060550
Ag      3.826273     18.060602     16.028306
Ag      5.820877     18.114975     18.106255
Ag      5.875478     20.094121     16.048219
Ag      7.896223     20.098394     18.075832
Ag      9.935547     20.130524     16.029662
Ag     11.959228     18.066892     16.040796
Ag     11.970355     20.130529     18.064455
Ag     14.000010     18.072470     18.072430
Ag     18.065610     20.095824     16.055514
Ag     20.095754     18.065640     16.055516
Ag     20.143172     20.143206     18.117634
Ag     22.179022     18.106265     18.114929
Ag     22.137860     20.114595     16.048861
Ag     24.147180     18.061335     16.024412
Ag      7.844652     22.183301     16.076102
Ag      9.887409     22.183011     18.112596
Ag      9.951387     24.125252     16.022561
Ag     11.977427     24.125275     18.048591
Ag     13.988464     24.210879     16.032197
Ag     16.023519     22.129653     16.059036
Ag     16.028320     24.173677     18.060573
Ag     18.106265     22.179079     18.114947
Ag     18.061384     24.147141     16.024416
Ag     20.114627     22.137909     16.048868
Ag     13.989252      3.892702     20.064670
Ag      9.928483      7.903591     20.096373
Ag     11.948886      5.884575     20.094150
Ag     11.948874      7.905792     22.115366
Ag     13.984335      5.898147     22.101765
Ag     16.048911      5.862031     20.114640
Ag     16.048912      7.885310     22.137916
Ag     18.117660      7.856774     20.143207
Ag      5.884587     11.948882     20.094156
Ag      7.903606      9.928471     20.096370
Ag      7.905824     11.948880     22.115351
Ag      9.922146      9.922148     22.122069
Ag     14.001104     11.963094     20.107474
Ag     16.055534      9.934356     20.095818
Ag     16.059003     11.976490     22.129676
Ag     18.114979      9.893718     22.179095
Ag     20.098388      9.924149     20.103775
Ag     20.094170     11.951837     22.124480
Ag     22.183322     11.923913     20.155424
Ag      3.892700     13.989235     20.064681
Ag      5.898195     13.984324     22.101762
Ag      5.862049     16.048897     20.114618
Ag      7.885363     16.048894     22.137888
Ag      9.934385     16.055538     20.095797
Ag     11.963109     14.001107     20.107470
Ag     11.976522     16.059016     22.129662
Ag     14.021948     14.021937     22.127212
Ag     18.064436     16.029658     20.130503
Ag     20.101779     13.999995     20.101818
Ag     20.155355     16.076066     22.183280
Ag     22.161227     14.000120     22.161159
Ag     22.124419     16.048188     20.094112
Ag     24.098403     13.999283     20.057918
Ag      7.856806     18.117646     20.143177
Ag      9.893754     18.114978     22.179062
Ag      9.924171     20.098404     20.103760
Ag     11.951784     20.094144     22.124480
Ag     14.000010     20.101751     20.101732
Ag     16.029645     18.064477     20.130502
Ag     16.076116     20.155348     22.183297
Ag     18.112595     18.112611     22.182973
Ag     18.075830     20.103781     20.098381
Ag     20.103736     18.075852     20.098379
Ag     11.923906     22.183328     20.155332
Ag     14.000013     22.160852     22.160826
Ag     13.999301     24.098488     20.057974
Ag     16.048223     22.124493     20.094105
Ag     13.989255      7.935230     24.107231
Ag      9.946410     11.965789     24.138365
Ag     11.965799      9.946358     24.138367
Ag     13.986646     11.964963     24.158003
Ag     16.024456      9.938595     24.147147
Ag     18.060577     11.971747     24.173647
Ag      7.935306     13.989239     24.107220
Ag      9.938643     16.024429     24.147126
Ag     11.965014     13.986628     24.157989
Ag     14.011566     16.032234     24.210875
Ag     16.032213     14.011564     24.210894
Ag     18.048593     16.022585     24.125239
Ag     20.058001     14.000726     24.098428
Ag     11.971710     18.060605     24.173671
Ag     14.000724     20.057996     24.098468
Ag     16.022582     18.048611     24.125242
405

Ag     25.571807     12.830298     -1.472939
Ag     29.062254      8.237821     -9.853257
Ag     27.174572     13.397613     -5.162584
Pd     15.402304     -0.393276     -9.768135
Ag     20.377957      1.639185      1.436312
Ag     31.341775     -3.496140     -6.769194
Ag     21.202458      2.851921      3.802632
Ag     30.920430     -0.742832     -6.430812
Ag     23.899363      2.973639      5.013331
Ag     17.288684      0.513271     -2.054164
Ag     24.071485      0.242572      4.563702
Ag     18.089735      5.591960      3.321904
Ag     30.582184     -4.855755     -9.321929
Pd     21.342141      2.062935    -13.566688
Ag     29.921354     -3.071771    -11.351554
Pd     27.598845      7.528651     -6.203276
Ag     18.865629      2.163461    -14.448072
Ag     33.603158      6.150958     -2.003308
Pd     27.936539      4.706221     -6.260814
Ag     16.072041      0.885628     -7.055295
Ag     22.862278     -2.384492     -0.686734
Ag     21.887232     -4.751410     -5.760911
Ag     29.216517     -2.493366     -5.134080
Ag     15.276554      6.405293     -6.050936
Ag     18.289107     11.593874    -11.064256
Pd     21.766945      2.195654     -2.540852
Pd     27.404025     -0.474443     -0.791025
Ag     25.509982      7.714800      4.049831
Pd     19.647917      6.097451     -0.511798
Ag     16.382968      5.976906    -12.735897
Ag     29.846016     -4.222855     -2.961125
Pd     24.185464      9.209443     -9.211862
Pd     20.352078     -2.141906     -1.618576
Pd     16.967253      4.156903    -10.285683
Ag     25.599656      1.803966     -7.815555
Ag     18.502216      7.806359     -2.856948
Ag     29.276871      2.618924    -10.639953
Ag     19.378374      7.464224     -9.129299
Ag     18.625821     -5.958051     -9.241308
Pd     18.304498     -1.330922      0.189138
Ag     21.814033      3.270980    -11.045868
Ag     21.620927      6.223132    -10.497994
Ag     21.306113      1.056825     -4.969208
Ag     33.140184      0.823328     -7.285756
Ag     27.188377     -1.392029     -3.320675
Pd     26.701883     -5.401977     -6.394211
Pd     27.432390     10.572907     -5.716783
Ag     31.615761      7.034721     -0.315576
Ag     27.731136      0.874481     -9.502350
Ag     28.513447     10.078648     -0.982999
Ag     17.439471      8.553422     -7.528089
Ag     14.987314      4.407482     -0.300241
Ag     21.009558     11.862363     -9.746108
Ag     25.041021     14.434043     -3.916195
Pd     24.224228     -1.689245     -4.392925
Ag     21.938476     -7.656778     -5.949120
Ag     22.859640     -0.111638    -17.640900
Pd     26.751330      2.584567    -11.631032
Ag     32.419638      6.689380     -6.777508
Ag     30.641936      2.014833     -5.787352
Ag     32.651743     -3.054120    -10.260155
Ag     24.092433      2.409540    -12.515691
Ag     17.470153      5.698504     -7.912717
Ag     18.938408     12.801599     -8.313931
Ag     14.188681     -3.915503     -6.295179
Ag     20.803438      6.704358     -4.168037
Ag     25.055637     -3.407451     -2.129573
Ag     24.256148      7.920093     -0.655380
Ag     21.997667      9.196187      0.855308
Ag     27.250233      9.341581      2.753572
Ag     26.292251     -3.619256      2.575333
Ag     24.628554     -3.468562    -13.201652
Pd     16.525696      1.986039     -4.587324
Ag     15.133193      9.531356     -5.962783
Pd     24.980653      0.812555    -10.262176
Ag     22.502197      3.439174      0.002986
Ag     24.571760      2.526895     -1.584890
Ag     26.439059     12.215718     -7.796745
Ag     24.979690      8.719326    -15.564031
Ag     14.205279      7.252012    -10.985310
Ag     31.055881      7.073760    -11.321945
Ag     29.244142     12.138880     -6.974966
Ag     17.798955     10.475143    -13.214543
Pd     19.283001      0.435532    -12.238581
Ag     20.352814      6.674318    -15.224847
Ag     23.067306      2.752174     -6.095102
Ag     18.249965     -3.108611     -8.799796
Ag     14.723916     -1.578625    -12.131627
Ag     30.590838     -2.951257     -0.406522
Ag     30.186126      2.797024      0.562346
Pd     23.032465      6.978387    -14.334847
Ag     20.736738     -4.034735    -10.708357
Pd     22.983348     -0.929570     -9.089632
Ag     27.974874      8.822296     -3.577010
Ag     13.854859      8.609622     -2.098808
Ag     29.502519     -5.373755     -5.492116
Pd     18.489882      3.930751     -5.521344
Ag     19.651668     -3.474738     -4.149184
Ag     33.083647      4.869643     -4.290602
Pd     19.153868      3.244799    -11.896822
Ag     27.949957      3.481214      2.210025
Ag     23.945974     -1.732019    -15.473029
Ag     25.298851     -4.858286    -11.184454
Ag     21.097404      4.132010     -4.785168
Ag     30.813287      8.837612     -2.642779
Pd     19.942912      3.183709     -0.828853
Ag     32.213244      1.600637     -1.216929
Ag     30.482833      5.823374    -13.913256
Ag     21.475146     -8.511878     -8.590652
Ag     22.651006      0.461172     -0.427026
Pd     18.467690      0.921833     -5.866591
Ag     20.163430     -5.175332    -12.975461
Ag     29.303588      5.469593    -10.386896
Ag     26.163306     -6.796658     -8.992031
Ag     19.896296      7.251413      2.281222
Pd     21.298685      8.135934     -1.522592
Ag     34.007289      3.389817     -2.349176
Ag     32.942826      7.679528     -4.260856
Ag     30.488472      5.066724     -5.316753
Ag     26.060753     -5.142228      0.148136
Ag     20.634006      9.649445     -3.975811
Pd     28.307347      7.142525    -12.327012
Pd     22.323477     -0.434580     -2.934860
Pd     21.596877     -0.757126    -14.072404
Pd     16.915985      7.288350     -9.965903
Ag     18.275877      2.891148      2.896494
Ag     20.386076     -5.102930     -2.062666
Ag     28.093315      3.201041    -15.563724
Ag     15.235076     -1.614168     -0.910557
Pd     23.726221      7.069942     -3.213152
Ag     28.656287      3.135127     -4.364639
Pd     26.913222      8.058993      0.363241
Ag     27.468344     -7.310486     -4.019725
Ag     24.032137     -5.583696     -7.151908
Ag     24.479679     -0.675352    -12.887088
Pd     20.812794      7.945088    -12.850363
Ag     28.517913     -1.853727      1.504271
Ag     28.515909      0.324298    -15.847452
Ag     13.479698     -2.168535     -8.150277
Ag     27.624242      8.753504    -14.611500
Ag     20.356784     -1.187542    -10.138462
Ag     12.471637      2.531356    -10.330600
Ag     22.710307     -5.211080    -12.021262
Ag     22.615494     -6.148164     -3.465634
Ag     22.336210      6.482193      0.292942
Ag     32.249401      2.554859     -9.533179
Ag     27.481003      3.485278     -9.136095
Ag     22.485868     11.347060     -5.177171
Pd     29.389038      1.508111     -2.137722
Ag     14.659877      0.312385     -3.200469
Ag     22.521918     -2.154350    -11.815196
Ag     18.019509      2.691048     -8.089900
Ag     17.993345      7.803110    -13.809192
Ag     23.702889      5.729795      5.232747
Pd     27.237805      5.138841     -0.153194
Ag     25.473090      2.796871    -16.450009
Ag     25.844211      6.829443    -13.390580
Ag     17.234455      7.394559      1.060914
Ag     17.069012     11.334416     -7.111139
Ag     16.548627      9.830838     -9.648978
Ag     28.890394     -6.415091     -8.111003
Ag     25.695079      4.840082      3.718697
Pd     31.068307      6.044271     -3.054123
Pd     29.817335     -1.247714     -2.524954
Ag     30.157390      7.755891     -4.991725
Ag     15.776685     10.502044     -3.235991
Pd     17.426418     -1.443844    -11.190105
Ag     30.395927      8.779617    -13.473083
Ag     26.346754     -1.102338      2.840706
Pd     28.824165      7.202962     -1.392227
Pd     22.280095      7.426211     -8.072639
Ag     26.728744      9.389377     -8.137213
Ag     21.704374     -1.594931     -5.468407
Ag     30.225153     -0.019268      0.232953
Ag     28.257058      5.821832     -3.715060
Ag     23.024287      5.832580     -5.935893
Ag     31.406922     11.319857     -8.481291
Ag     31.630987      8.398036     -8.681959
Pd     25.469187      0.613082      0.785510
Pd     17.450172      4.277221      0.854029
Ag     22.608251      3.001406    -17.446624
Pd     26.831305     -0.282678    -11.878831
Ag     21.226682     -1.710154    -16.616948
Pd     18.008945      9.501333     -4.815528
Pd     30.317341      0.849123     -8.332573
Ag     24.647909     10.322920     -6.821788
Ag     28.877755      0.266756     -4.629973
Pd     17.804497      1.502282      0.247240
Ag     16.414597      8.852985     -1.161367
Ag     14.740282      7.295346      0.034746
Ag     16.388199     -3.179366      1.126071
Pd     20.912170     -3.043901     -8.038357
Ag     32.199037     -1.337809     -1.320773
Ag     19.936740      1.632149     -9.941209
Ag     15.780546     -3.005701    -10.115824
Ag     29.604297      8.079744      1.107725
Ag     28.637460     10.994056     -9.478583
Ag     26.897286     -8.477817     -6.648681
Pd     16.884566     -0.683149     -4.955342
Pd     19.592971     11.426242     -6.133273
Pd     26.362653      5.158782    -11.254919
Ag     20.170239      4.520709      1.827537
Ag     30.942573      9.870940    -11.103725
Pd     23.542491     -0.940250      2.130485
Ag     27.968278      0.775575      1.901150
Ag     30.665237      3.262203    -14.273475
Ag     26.403101      6.925063     -2.357872
Ag     28.318490     10.046019    -11.949491
Pd     24.265116      6.345845     -9.711074
Pd     17.415882      1.469338    -10.596787
Ag     14.912346      1.322966     -0.446738
Ag     24.279065     13.201889     -6.211580
Ag     26.417807      4.039030     -2.496462
Pd     15.194843      2.408767     -9.338699
Ag     26.934191      6.617436     -8.456480
Ag     26.095659     -3.909368     -8.468469
Ag     31.796369      4.235795     -0.688219
Ag     33.376114      2.237639     -4.768381
Ag     12.710817     -0.381199    -10.596179
Ag     14.192661      5.875748     -2.370327
Ag     16.321911     -4.789475     -7.643102
Pd     29.132252      4.418345     -1.486706
Pd     24.128218      1.385098     -4.056520
Ag     19.133591     -3.717763    -15.357076
Ag     18.462619     10.657692     -2.070850
Ag     17.649068     -2.406171     -2.597137
Ag     20.744257      0.975857    -16.220489
Ag     32.009203     -2.504058     -4.032039
Ag     13.170809      3.679662     -7.402789
Ag     24.743687      7.371370     -7.067506
Pd     25.026850      3.485354      0.988110
Ag     25.593394      0.076078    -16.721759
Pd     26.109018      0.214572     -5.671781
Pd     25.795945      2.814749     -5.299178
Pd     30.573833     -1.939979     -8.956506
Ag     30.990500      0.386955    -14.630783
Ag     25.966398      4.133261    -13.747503
Pd     17.966711      6.808954     -5.242425
Ag     25.203629      4.706018     -7.559870
Ag     18.813659     -0.157243      2.706580
Pd     24.581400      3.350375     -9.846949
Ag     23.417413      8.202938    -11.769975
Ag     16.977906     -2.633677    -13.545767
Ag     27.998752      6.035220    -14.960522
Pd     23.612635      1.171119    -15.127829
Ag     26.090436     10.783770    -10.431076
Ag     15.886810     -0.233812      1.485165
Ag     24.849782     -7.442375     -5.143154
Pd     16.089894      4.921772     -4.098842
Ag     20.155969      9.466222    -15.041591
Pd     20.517261      2.679791     -7.243574
Ag     23.854883     -2.723875     -6.944668
Ag     21.100875     -3.924120      0.769147
Ag     15.848807      8.972752    -12.270486
Ag     31.896717      1.687120    -12.037540
Ag     21.292867      0.064389      3.494444
Ag     31.591507      4.490555    -11.848787
Ag     34.248804      0.635284     -2.739875
Ag     14.094847     -0.771449     -5.810467
Ag     13.443263      7.518377     -4.799956
Ag     25.495544     -1.167425     -8.048092
Ag     19.029448     -3.120138      2.150290
Ag     24.738563      9.216679      1.729333
Pd     28.841328      1.527229    -13.156438
Ag     26.556728     11.160403      0.573617
Pd     20.119167      5.570042     -6.923019
Ag     20.404716      3.813537    -15.684955
Ag     18.924275     -0.861298    -14.807086
Ag     28.151836     -4.933613    -10.129396
Ag     33.073717     -1.953344     -7.727493
Ag     19.622149     14.133774     -5.779721
Ag     22.441574      5.634771    -16.853134
Ag     12.684514      6.520761     -7.094015
Ag     14.530379      8.168211     -8.549132
Ag     24.790164     -0.374223     -1.745518
Ag     20.590262     10.923187    -12.382300
Ag     26.549780      1.365851     -3.128433
Pd     29.631680      6.447657     -7.462980
Ag     20.411055     12.640804     -3.314183
Pd     25.127452     11.376868     -4.027505
Pd     31.458142      0.420821     -3.726897
Ag     32.648700      3.934764     -7.114360
Pd     25.620602     -2.117279      0.342882
Ag     33.593911     -0.844165     -5.171193
Ag     19.578950      4.445760     -9.378698
Ag     16.595111      6.000255     -1.346954
Pd     29.317158      9.505979     -7.344233
Ag     13.647116      1.812384     -5.463866
Pd     18.847272      6.083195    -11.710569
Pd     23.200776      3.829508    -14.848114
Ag     22.711527      8.414916     -5.655457
Pd     21.216301     -5.707916     -8.338667
Ag     17.704032     -4.158869    -11.482398
Pd     14.981282      5.562428     -8.678746
Ag     25.492262     -6.046519     -2.664796
Ag     22.291643      0.365376    -11.224008
Pd     27.701320     -2.995674     -1.228721
Pd     22.554275     -3.509272     -3.063519
Pd     23.274043      1.961748      2.358685
Pd     18.882332      8.845331    -11.335995
Ag     14.954828     -2.729554     -3.492054
Pd     21.542531      5.246876     -2.215873
Ag     22.263095      8.525039    -16.360498
Ag     25.000879      5.918888    -16.003809
Ag     27.602884      6.528260      2.557413
Pd     16.102005      7.617956     -3.719463
Ag     23.168144     -5.051830     -1.121247
Ag     32.282545      9.649261     -6.314918
Pd     23.684866      4.156690     -3.724898
Ag     24.414613     -2.812422      4.053745
Ag     27.394737     -3.321921    -12.396057
Ag     31.915864      5.649904     -9.337836
Ag     22.106777     14.187214     -4.544344
Ag     17.096064      3.388259     -1.987219
Pd     20.098589      0.454948     -1.271895
Ag     22.781821      7.615995      3.194190
Ag     15.537291      5.481568      2.265287
Pd     27.236314      2.511562     -0.540624
Pd     21.007882      5.036252    -13.339565
Ag     27.412954     -4.549774     -3.817596
Ag     22.707039      9.872789    -13.934821
Ag     14.488197      3.239483     -2.774850
Ag     29.637797     -0.290019    -11.078981
Ag     21.880244     -3.498684    -14.486075
Ag     20.619267     -7.020259    -11.004707
Pd     24.656639     -4.489228     -4.868751
Ag     23.170639     12.574432     -2.427432
Pd     20.732773     -0.079441     -7.752973
Ag     19.301350      2.061917     -3.461162
Pd     25.570396      8.806127     -4.497391
Ag     29.796449      5.243784      0.870522
Ag     23.750052      5.316056    -12.327481
Ag     16.748369      0.225924    -13.219970
Ag     26.067977      1.188103    -14.296104
Pd     28.518471      4.192439    -12.716719
Pd     30.020483      3.684529     -7.975402
Ag     20.882343     -1.251311      1.031812
Ag     19.384680      9.045221     -0.216032
Ag     14.386942      4.262574    -11.234280
Ag     27.918393     11.538631     -3.309717
Ag     18.146937     -0.176185     -8.436861
Ag     24.265971      5.056543     -1.142969
Pd     21.913959     10.147128     -7.535998
Ag     28.075438     -6.043332     -1.596721
Pd     22.908517      4.767882      2.807099
Pd     19.795854     -2.353531    -12.652493
Pd     22.812118      1.809464     -8.887902
Pd     24.972843     -2.161158    -10.949933
Ag     16.180808     -2.060390     -7.236453
Ag     18.350077      4.781401    -14.076446
Ag     28.695412     -4.795346      0.877200
Ag     21.728526     -2.682365      3.168407
Pd     28.259019     -1.011856     -7.143079
Pd     28.591723     -3.637654     -7.461941
Ag     17.947559     -5.528037     -2.789114
Ag     26.016211      1.963187      3.162940
Ag     13.379204      0.649095     -7.780527
Ag     13.341341      4.697778     -5.188002
Ag     23.950095     10.779094     -0.119746
Pd     17.109149     -3.477355     -5.351959
Ag     15.527350     -4.425491     -1.184631
Pd     28.102154      1.867770     -6.819303
Ag     14.456699      1.290840    -11.806672
Pd     23.124436      9.875933     -3.070286
Pd     26.205867      8.181362    -10.653950
Pd     23.277798     -4.070976     -9.393472
Ag     27.993749     -1.891126     -9.644390
Pd     19.271063     -4.741037     -6.727240
Pd     25.639977      5.803361     -4.925080
Ag     29.031862     -1.496769    -13.437414
Ag     23.288484     10.992340    -11.322248
Ag     21.634442     13.065451     -7.470224
Ag     12.393838      5.422912     -9.720889
Ag     20.654390      5.735448      4.361467
Ag     15.250421     -5.206128     -4.014095
Ag     26.633447     -1.579275    -14.541390
Ag     21.496974      8.901706    -10.064623
Ag     15.512765      3.652779     -6.733325
Ag     25.297947     10.044347    -12.982584
Ag     23.712120     -4.003493      1.761165
Ag     32.543758     -0.304936     -9.932036
Ag     16.335718      3.174539    -13.121617
Ag     24.252895     -8.339419     -7.899496
Ag     23.450882     -6.830991     -9.764238
Ag     19.460722     10.175759     -8.517625
Pd     26.556374     -2.526402     -6.072408
Ag     29.910407     10.431827     -4.610543
Pd     18.757738     -2.012071     -6.396992
Ag     21.044092     10.726442     -1.172576
Ag     19.436762     -7.582868     -7.025094
Ag     23.927722     12.170646     -9.005577
Ag     20.019378     -6.418987     -4.546463
Pd     24.888027      6.193113      1.430821
Pd     22.565760      4.385414     -8.515911
Ag     31.982505     -1.278593    -12.651902
Pd     20.108369      8.396993     -6.514425
Ag     17.406349     -6.570634     -5.569227
Ag     18.450506     -3.956028     -0.509378
Ag     19.606311     -0.758765     -3.792219
Ag     17.475967     12.285802     -4.498732
Ag     25.800821      9.792198     -2.021113
Pd     31.341785      3.302409     -3.329310
Ag     18.800130      5.002117     -2.999423
Ag     23.324813      0.073827     -6.510632
Ag     15.882568      2.674399      1.803801
