120

Zn     0.555880     1.691923    -1.680753
Zn     2.262192    -1.617530     0.233985
Zn    -0.749564    -0.653288    -1.443269
Zn    -0.060280     0.686866     1.535730
Zn     0.418831     0.848400    -2.188512
Zn     2.565665    -1.173871    -0.616133
Zn    -0.837746    -0.842101     0.558913
Zn    -0.359985     0.941481     0.655674
Zn     0.661624     1.179281     1.095589
Zn     1.432466     1.883516    -1.175312
Zn    -0.492407    -0.850226     1.891444
Zn     1.640945    -0.198217     1.506229
Zn     2.873309    -0.214618    -0.638323
Zn     2.580245     0.792778    -0.556230
Zn     2.182798     0.918440     0.345639
Zn     0.730013    -0.155381    -2.271353
Zn     0.248935     0.430983    -0.359205
Zn    -1.274182    -0.489594     1.421464
Zn    -0.758435     0.132800     1.929387
Zn     1.673386    -0.938847    -0.114118
Zn    -1.530403    -0.018634    -1.410894
Zn     1.353835     1.504917     0.488435
Zn     0.656584    -0.632054    -3.126599
Zn     1.335545     1.079745    -1.754860
Zn     1.606491    -1.433904    -1.020075
Zn    -0.191413    -1.816320     1.770552
Zn     1.321887    -1.160361     1.569894
Zn     2.023245     0.046465    -0.131589
Zn     0.143014    -0.909674    -1.871223
Zn    -0.048895     0.964562    -1.228306
Zn     0.445065     0.354956     0.648076
Zn     2.546138     0.303118    -1.414400
Zn     0.124880    -1.360120    -2.732387
Zn     1.809845     1.424236    -0.404412
Zn    -0.564940     1.059045    -0.301396
Zn    -0.215282    -1.875679    -1.931663
Zn    -1.071218    -1.685658    -0.564223
Zn    -1.575731    -0.852110    -1.952779
Zn     1.278985     0.649186    -2.653073
Zn     1.344592    -1.905091    -0.101497
Zn    -0.335712    -2.102194     0.850319
Zn     1.617713     0.068642    -1.851426
Zn    -0.737378    -0.732485    -0.427917
Zn    -0.570015     0.098788     0.167892
Zn     0.714345    -1.659049    -1.442106
Zn    -0.981071    -1.497155     1.339357
Zn     2.473706    -0.173480    -2.267008
Zn    -0.745295    -1.127818    -2.350107
Zn     1.048883    -0.426976     2.199817
Zn    -0.498115    -2.314128    -1.071781
Zn    -1.645622    -1.027624    -0.048485
Zn     2.458196    -1.642396    -1.462641
Zn     0.631724     2.389751    -1.043241
Zn     1.497671     0.668583     0.999212
Zn     1.944251    -0.455109    -1.019146
Zn    -0.182503    -1.407204    -0.992048
Zn     0.521054    -2.087063     0.408876
Zn     0.719257    -1.185733    -0.490952
Zn     2.195214     1.260001    -1.324840
Zn    -0.297995    -0.183324     1.124690
Zn     2.643689    -0.665857     0.216534
Zn     1.530108    -1.806103     0.852308
Zn    -0.150716     0.100014    -1.788942
Zn    -0.126884    -1.424460     0.043762
Zn    -0.971103     0.722429    -1.719941
Zn     0.843252     1.189706    -0.806275
Zn     0.888196    -1.168291     0.523946
Zn    -0.196889    -0.389119    -2.711991
Zn     2.193793     0.788713    -2.188598
Zn     0.737561     0.301002    -1.322788
Zn    -0.375796     1.427178    -2.030712
Zn    -0.846179     1.523680    -1.145380
Zn     0.676759    -1.846684     1.329269
Zn    -1.406471     0.808318    -0.817330
Zn     2.057295    -2.510601    -1.442573
Zn     1.246836    -2.398429    -0.959274
Zn     1.593461    -1.874726    -1.971402
Zn     1.203078     0.677820     0.017625
Zn     0.342425    -2.562108    -1.478334
Zn     0.257722    -0.486992     0.111941
Zn     0.155218    -0.434555    -0.897452
Zn     1.301410    -0.217971     0.536534
Zn    -1.069512    -1.602930    -1.539999
Zn    -1.608046    -0.938542    -1.007496
Zn    -1.038359    -0.120423    -2.268013
Zn    -1.072752     0.431356     1.056779
Zn     2.932841     0.285686     0.180004
Zn     0.861161     0.423367     1.698953
Zn     1.020929    -0.673066    -1.402166
Zn     0.376671     0.330139    -3.048189
Zn    -0.228145     2.172752    -1.450002
Zn     1.650520     0.554579    -0.936866
Zn    -1.138637    -1.781305     0.405941
Zn     1.960010    -0.920690     0.869701
Zn     2.192976    -2.095098    -0.602929
Zn     2.289962     0.045170     0.836460
Zn     0.368987    -2.151297    -0.563008
Zn     0.649934    -2.098734    -2.318041
Zn     1.004372     1.990690    -0.269976
Zn    -1.599363    -0.197577     0.535000
Zn     0.410666     1.305251     0.160115
Zn    -0.652811     0.209463    -0.860305
Zn     0.437360    -1.139196     2.010347
Zn     1.005874    -1.169538    -2.352955
Zn     0.674752    -0.460402     1.274401
Zn     1.606217    -0.475664    -2.744738
Zn     0.027774     1.792056    -0.617789
Zn    -0.005896    -1.187405     1.042867
Zn     1.035654    -0.212366    -0.480961
Zn     1.197425    -2.727600    -1.849335
Zn     2.763708    -0.694179    -1.484087
Zn    -0.473402    -2.311714    -0.095453
Zn     1.922588    -0.938194    -1.919303
Zn    -1.533556    -0.096386    -0.434712
Zn     1.221404     0.080163    -3.407580
Zn     2.088382     0.298955    -2.997456
Zn    -1.341885     0.673670     0.147827
Zn     0.144249    -0.131635     2.092454
Zn    -0.443614     0.594059    -2.573140
Zn    -1.737958    -1.130271     0.881499
120

Zn     1.526830    -0.547046     2.386289
Zn    -0.742699    -0.935795    -0.623283
Zn    -1.506977     1.402641    -0.784366
Zn     0.049097     2.752557     1.269776
Zn     1.485523    -0.720654    -0.735278
Zn    -1.268425     1.316969     2.233922
Zn    -2.013255    -0.211019     1.554492
Zn     1.859827    -0.661348     1.265418
Zn    -1.348629    -0.282177    -0.071366
Zn     0.560149     1.230692     2.665602
Zn    -0.719567     1.934543    -0.971126
Zn    -1.570246     1.720795     1.381773
Zn    -0.168458    -0.864822     1.166729
Zn    -2.161002     0.199234     0.339727
Zn     0.625522     1.617914     1.386111
Zn    -0.621645     2.251867     0.708152
Zn     1.915088    -0.853847     0.382473
Zn     1.552785    -0.089561    -1.058906
Zn     0.548491    -1.008042     1.193987
Zn     0.856934    -1.195680     0.159111
Zn    -0.333688     1.377294     2.537237
Zn    -0.083208     2.046842    -0.305061
Zn    -1.794361     0.735523     1.908745
Zn    -0.496366     1.151903    -0.038003
Zn    -1.619609     0.324849     2.348858
Zn     2.068695    -0.087577    -0.400959
Zn     0.316108    -0.098556     1.419227
Zn    -0.217495    -0.789128     2.083299
Zn    -0.872523     0.487538    -0.994579
Zn    -0.366519    -1.367750    -0.037046
Zn    -1.366131     0.392633     1.084245
Zn    -0.934523    -1.855996     0.676067
Zn     2.520397     0.584360     0.266941
Zn     1.117353     1.287870     0.618705
Zn     0.695830    -0.463717    -1.448342
Zn     0.063476    -0.199234     0.424672
Zn     1.094678    -0.442899     0.378223
Zn     0.307047    -0.515867     2.930936
Zn     1.669290     1.454352    -0.058394
Zn     0.147880     0.800983     1.819747
Zn     0.218561     0.287851    -1.162436
Zn     0.421851    -1.671881     1.714762
Zn     0.558648     3.034267     2.172128
Zn     0.157352    -1.583577     0.534559
Zn     2.156418     1.402410     1.004364
Zn    -1.197206    -0.969531     1.294327
Zn    -0.249023     0.061300     2.236423
Zn     2.847269     0.426892     1.125007
Zn    -0.905593    -0.485662     0.480503
Zn    -0.730853    -0.108612     1.518206
Zn     1.125653     1.018217     1.691807
Zn     1.811210     0.726311     0.937063
Zn    -1.130616     1.371367     0.697825
Zn     2.165645    -0.077791     1.632102
Zn     1.060572     0.719489    -0.697978
Zn    -0.521778     2.880909     1.842960
Zn     1.512423     1.629936    -0.946388
Zn     0.631157     0.249147     2.167254
Zn     0.165003     2.089327     2.149229
Zn    -0.376323    -0.130188     3.658899
Zn    -0.444887     1.644700     1.606386
Zn     0.193462     1.176430    -1.193509
Zn     1.009046    -0.118502     2.981381
Zn     0.480905     0.568975     0.781799
Zn     1.753006     0.736872    -1.464954
Zn     0.767192     1.933343    -1.090964
Zn    -0.936128     0.866604     1.491608
Zn     0.839450    -0.574448     2.163978
Zn    -1.258157    -0.393034    -1.052150
Zn    -1.717458    -0.729298     0.465262
Zn    -0.987463     0.413615     3.011982
Zn     0.210440    -0.277335    -2.085430
Zn     1.407481    -1.756780     0.799837
Zn     1.025718     0.624592     2.938920
Zn     1.370863     2.320356     0.527819
Zn    -0.019567     1.700092    -1.944762
Zn     0.251638     0.878846    -2.007921
Zn    -1.422256     2.105193     0.489626
Zn    -0.928487     0.605049    -0.094406
Zn    -2.398649     0.117516     1.164999
Zn     2.094949    -0.296983     0.485663
Zn    -0.130223    -2.429497     1.241502
Zn     0.705634     0.007395     3.686969
Zn     0.080557     1.171131     0.525757
Zn     1.248329    -1.256130     1.914970
Zn     0.682599     2.380276     0.531518
Zn     0.916031    -0.024169    -0.504577
Zn    -1.390152     0.607417    -1.744915
Zn    -0.072577     0.653895    -0.094191
Zn     2.289905     1.155377     1.960430
Zn    -0.859004    -1.475005     1.810266
Zn    -1.602676     1.063605    -0.212798
Zn     1.024633     2.679755     1.439083
Zn     1.182567    -0.150406     1.729231
Zn     1.424636     0.598713     0.016129
Zn     0.825971    -2.018068     1.364832
Zn    -1.174913    -0.993442     2.018275
Zn    -0.085339     0.909071     3.017142
Zn     1.683750     1.773192     1.500009
Zn    -1.326655    -1.322571     0.379228
Zn    -1.228350     2.198157     2.314827
Zn    -0.975071     2.090816    -0.212314
Zn    -0.737913    -0.374004     3.065993
Zn     1.893787     0.579853    -0.653883
Zn     1.151768     2.168296     2.259982
Zn     0.700273     1.486733    -0.235451
Zn     1.039708     1.487736    -1.697435
Zn    -0.540234     0.142006    -1.954844
Zn    -0.253630     0.541916     0.828987
Zn     1.703353     0.451713     2.538128
Zn     1.400244     1.524810     2.560645
Zn     0.173190    -1.070870    -0.495028
Zn     1.061723     2.217906    -0.271519
Zn    -1.000706     2.639873     1.116502
Zn     0.902084     0.221018    -1.894490
Zn    -0.585233    -0.339334    -0.499524
Zn    -0.203170    -0.478074    -1.535534
Zn    -0.679677     1.305384    -1.859233
Zn    -2.173325     1.233225     0.927186
Zn    -1.606228     0.589727    -0.556324
