21

Cl      0.000000      0.000000      0.995000
Cl      0.000000      0.000000     -0.995000
AR      2.233360      2.421674      3.078450
AR     -0.544410     -5.663877      0.000012
AR     -0.014778     -0.003175      4.584615
AR     -1.625313      2.835099     -2.896291
AR     -3.230980     -0.696066      3.103153
AR     -0.313743     -3.252853     -2.896278
AR     -1.625313      2.835110      2.896279
AR     -2.550944     -2.539172      0.000005
AR      3.032394     -1.287223      3.078457
AR     -2.828290      4.937274     -0.000010
AR      2.233360      2.421663     -3.078459
AR      0.613964      3.543453     -0.000007
AR     -3.230980     -0.696078     -3.103151
AR      2.018562     -2.976309      0.000005
AR      3.500196      0.754073     -0.000001
AR     -3.370188      1.263542     -0.000003
AR     -0.313743     -3.252843      2.896292
AR      3.032395     -1.287234     -3.078451
AR     -0.014777     -0.003192     -4.584615
21

AR     -2.667822     -2.156319      2.888838
AR     -2.542586      1.884989     -3.067644
AR      3.479032      0.268523     -2.900444
AR      1.232879     -2.906848     -2.974104
AR     -1.115907     -3.417100     -0.131273
AR      2.879777      2.217352      0.121653
AR      1.056576     -3.075298      2.835275
AR      0.229412      0.133155     -4.522573
AR     -4.682228      3.182419     -0.245756
AR      1.063904      3.314296     -2.957624
AR      3.203597      0.103722      3.268098
AR      0.678858      3.077529      3.234886
AR     -0.908569      3.378668      0.100788
AR     -3.594876     -0.263915     -0.230610
AR      2.046631     -5.278069      0.029891
AR     -2.940614      1.666193      2.858548
AR     -2.392816     -2.055469     -3.324595
AR      3.185761     -1.776235      0.179988
AR     -0.331387     -0.159263      4.657431
Cl      0.081398      0.104836     -1.062351
Cl     -0.120705     -0.116362      0.997123
