19
Structure: R15 Stoichiometry: C5H11RhP2+
C -0.575022 -1.298366 0.750071
C -1.929301 -1.343708 1.084751
C -2.947226 -0.631299 0.422964
C -2.707813 0.197797 -0.694307
C -1.422072 0.390567 -1.180413
Rh 0.313092 0.020216 -0.384828
P  0.491010  1.972555   0.734347
P  2.429124  -0.981842  -0.022854
H  0.088956  -1.895383  1.402534
H  -2.236218 -2.011134  1.904159
H  -3.983312 -0.777661  0.754721
H  -1.311627 0.891140   -2.167411
H  -3.578365 0.599940   -1.232589
H  3.116567  -1.464614  -1.175117
H  2.467546  -2.200724  0.718047
H  3.595041  -0.418134  0.589009
H  1.298535  3.135885   0.502882
H  0.867637  1.808673   2.095798
H  -0.727304 2.671659   0.954448
19
end-aligned_to-start.xyz
C -1.5239738 -1.77134579 0.13991595
C -2.10229449 -0.93083677 1.14371125
C -2.37007063 0.32503169 0.51167613
C -2.1008339 0.20618203 -0.91457606
C -1.57950456 -1.08577775 -1.14369436
Rh -0.16948171 -0.00343404 0.31231974
P 0.67247773 1.97112569 0.84740684
P 1.84120403 -0.92575934 0.33533038
H -1.19640273 -2.80295205 0.28642744
H -2.26609676 -1.18272179 2.19134946
H -2.81145758 1.19884516 0.99603525
H -1.26680946 -1.50034294 -2.10296656
H -2.26852428 0.9820439 -1.66275319
H 2.3774882 -1.58164181 -0.81947971
H 2.16348741 -1.98758278 1.24088608
H 2.98962124 -0.12596819 0.61348773
H 2.08150513 2.12495151 1.01136094
H 0.29753994 2.63754823 2.05846777
H 0.48137422 3.11820203 0.0113069
