53
Structure: R29 Stoichiometry: C17H30O2IrNP2+
C 4.000075 -1.001520 -0.690878
C 2.580991 -1.074153 -0.509245
N 1.867281 0.118615 -0.504222
C 2.482848 1.311310 -0.725368
C 3.865621 1.410598 -0.876427
C 4.627217 0.220850 -0.851256
C 1.892322 -2.296756 -0.275792
P 0.114758 -2.270441 -0.319642
Ir -0.273223 0.016585 -0.138760
P -0.090327 2.316112 -0.154979
C 1.597172 2.529492 -0.916161
C -2.341118 -0.058349 0.013687
C -3.154962 -0.376724 -1.103886
C -4.555791 -0.411145 -1.022761
C -5.206847 -0.123672 0.185929
C -4.432124 0.198509 1.309169
C -3.031299 0.228775 1.218815
O 2.208530 -1.735441 2.580998
O 1.847625 0.933815 2.897401
H 4.573897 -1.933205 -0.693358
H 4.333116 2.384777 -1.040434
H 5.714705 0.265776 -0.977965
C -0.531800 -3.121988 -1.825770
C -0.512525 -3.344711 1.043805
H 2.097538 3.448210 -0.564152
H 1.417302 2.652589 -2.002273
H 2.104465 -1.975105 1.604254
H 2.446640 -3.233853 -0.417587
C -1.219299 3.326603 -1.193930
C -0.002988 3.202435 1.451034
H -2.678777 -0.602017 -2.065093
H -5.143059 -0.663771 -1.914205
H -6.300188 -0.150293 0.251387
H -4.918996 0.426768 2.265260
H -2.460266 0.487979 2.121048
H -0.457666 -0.299291 1.655730
H 1.332510 0.851793 3.720207
H 2.105081 -0.016031 2.724632
H 3.093636 -2.076181 2.802706
H -0.456601 0.091201 -1.721341
H 0.245592 0.136472 1.683135
H -0.182236 -4.168511 -1.866425
H -1.635257 -3.100118 -1.811239
H -0.171417 -2.577285 -2.712707
H -0.220030 -4.397449 0.881420
H -0.071674 -2.989685 1.989656
H -1.612054 -3.270583 1.093923
H 0.259806  4.265912  1.313686
H -0.983777 3.125900  1.950891
H 0.759148  2.685189  2.060026
H -0.914063 4.386831  -1.228090
H -1.236098 2.903226  -2.211211
H -2.234741 3.244032  -0.771496
53
end-aligned_to-start.xyz
C 4.12077853 -0.6921347 -0.70445274
C 2.74063308 -0.7737634 -0.46412793
N 1.92678874 0.28760631 -0.74303298
C 2.44531595 1.43942765 -1.25951248
C 3.82145907 1.57133298 -1.48350742
C 4.67000141 0.49201626 -1.20698709
C 2.10702193 -1.99621391 0.14936452
P 0.28699405 -2.07057111 -0.2394324
Ir -0.17827999 0.17375628 -0.26930306
P -0.08635778 2.42690018 -0.57303153
C 1.45961969 2.52528445 -1.62732915
C -2.16643039 0.03007225 0.26224082
C -3.09406768 -0.7342079 -0.49078811
C -4.43485141 -0.88087053 -0.10224374
C -4.91361648 -0.25285158 1.05768571
C -4.02670965 0.52432153 1.81688036
C -2.68364359 0.65800121 1.4257319
O 1.91413607 -2.15387492 3.3222491
O -0.46176134 -0.81746542 3.40015596
H 4.754461 -1.55425347 -0.47727417
H 4.21504416 2.50804486 -1.88877475
H 5.74707714 0.57312751 -1.38452998
C 0.17286173 -2.99076581 -1.83183424
C -0.42687051 -3.23067953 0.98907012
H 1.93703811 3.5208284 -1.62888132
H 1.09607471 2.32151653 -2.65405179
H 2.13539715 -1.92215822 1.26458168
H 2.65762983 -2.91205147 -0.13054432
C -1.35936377 3.32259566 -1.54961829
C 0.24764941 3.54944921 0.84972864
H -2.75317633 -1.21839829 -1.41381249
H -5.11351524 -1.48654382 -0.71585962
H -5.96040951 -0.36370771 1.36188356
H -4.3795542 1.03000574 2.72456347
H -2.01193461 1.26044355 2.05011192
H 0.24455114 0.35109217 1.37078159
H -1.40227899 -1.03986726 3.27367712
H 0.99782229 -1.7884663 3.45511349
H 2.47479165 -1.42459634 3.64178726
H -0.63725358 0.06359256 -1.87821788
H -0.23757767 -0.32753451 2.55243079
H 0.60212227 -4.00539327 -1.75273646
H -0.88886023 -3.05896568 -2.12249424
H 0.70386781 -2.41192701 -2.60463203
H 0.09240497 -4.20387537 0.99137684
H -0.35530122 -2.75460056 1.97800283
H -1.49181294 -3.37002308 0.73733508
H 0.45776166 4.58522286 0.52898807
H -0.63408283 3.53932474 1.51250582
H 1.10338766 3.14329324 1.41309728
H -1.07304464 4.36768027 -1.76117986
H -1.52469586 2.76891967 -2.48753822
H -2.29856779 3.30398109 -0.97146963
