54
Structure: R11 Stoichiometry: C24H25NbN3F+
C -1.480751 3.821105 -1.641722
H -1.054483 4.454020 -2.435819
H -1.653620 4.463378 -0.758311
H -2.463388 3.440119 -1.968625
C -0.547608 2.679672 -1.312387
C 0.814041 2.747894 -1.620821
H 1.149798 3.621805 -2.185251
C 1.836082 1.861394 -1.181704
C 3.260046 2.249038 -1.539968
H 3.867129 2.394381 -0.629496
H 3.273220 3.177648 -2.129644
H 3.755841 1.452548 -2.121489
C 2.789582 0.123688 0.129667
C 3.529547 -0.825763 -0.601279
C 4.639224 -1.455683 -0.019968
H 5.201574 -2.196532 -0.598516
C 5.028395 -1.143122 1.290033
H 5.893416 -1.639096 1.742051
C 4.301074 -0.185828 2.015792
H 4.600907 0.073313 3.037068
C 3.191343 0.444272 1.441418
C -2.211117 1.320366 -0.029852
C -2.776363 0.017876 -0.218363
C -3.791147 -0.436897 0.659225
H -4.197795 -1.441764 0.515206
C -4.280436 0.393584 1.661715
H -5.068677 0.042450 2.334662
C -3.768659 1.710026 1.799766
H -4.171234 2.365006 2.580495
C -2.746462 2.173681 0.985580
C 0.229082 0.109611 3.406153
C 0.420140 -1.860988 -2.016492
H 1.296953 -1.500545 -2.564896
C -0.750932 -2.105064 -2.708994
H -0.797225 -1.890399 -3.782100
C -1.892353 -2.713596 -2.074572
H -2.771287 -3.029334 -2.641253
C -1.821239 -2.898799 -0.716154
C -0.727934 -2.440348 0.089831
H -0.697067 -2.809718 1.119886
C  0.529832  -2.078458  -0.586579
H  1.502616  -2.339504  -0.151120
N  1.630827  0.764496   -0.425152
N  -1.030419 1.561855   -0.740687
N  0.041226  -0.092608  2.007962
Nb -0.266225 -0.126696  0.250481
H  -0.273629 -0.686567  3.991774
H  1.307063  0.078447   3.668431
H  -0.176204 1.084957   3.745639
H  2.615222  1.189330   1.996576
H  3.231952  -1.067226  -1.625495
H  -2.556616 -0.544810  -1.134478
H  -2.318475 3.169215   1.131844
F  -2.856945 -3.483193  -0.062630
54
File created by wolfsort 
C	-1.64054727	1.72256539	-2.99522072
H	-1.32796847	2.5872368	-3.60012701
H	-2.69593577	1.84165017	-2.69848127
H	-1.58664559	0.81900104	-3.62712334
C	-0.75588231	1.57609017	-1.77219072
C	0.46341911	2.30289205	-1.76024913
H	0.63860951	2.95200994	-2.6213551
C	1.50415545	2.23533659	-0.83275417
C	2.75628889	3.02936252	-1.15202437
H	3.00039714	3.7281204	-0.33374251
H	2.62373338	3.59721726	-2.08440906
H	3.6279027	2.36114395	-1.2606481
C	2.71825843	1.45375682	1.06527249
C	3.6611208	0.44993712	0.78480687
C	4.86601207	0.39497613	1.50103486
H	5.5913955	-0.39463283	1.27807467
C	5.13926051	1.34130621	2.49923262
H	6.07939946	1.2972972	3.05834279
C	4.1919767	2.33680816	2.78696668
H	4.39023283	3.07231364	3.57379163
C	2.98697666	2.39551956	2.07481741
C	-2.30365558	-0.00948116	-0.9014433
C	-2.29231784	-1.1563719	-1.71982311
C	-3.41074963	-1.99327009	-1.76907849
H	-3.38251103	-2.89530373	-2.38901744
C	-4.55345512	-1.69397987	-1.01001119
H	-5.42457631	-2.35651477	-1.04319884
C	-4.56850177	-0.54934032	-0.20202617
H	-5.4547191	-0.30910937	0.39506124
C	-3.44788631	0.29222963	-0.1407958
C	1.73390026	-0.45737425	3.67902394
C	-0.98866502	-4.26881361	0.17671092
H	-1.18578987	-5.31019032	-0.10101111
C	-1.84696786	-3.59959399	1.06245161
H	-2.71920917	-4.11766035	1.47735755
C	-1.59582415	-2.26494275	1.41470803
H	-2.29002971	-1.75994184	2.098865
C	-0.49302127	-1.56541812	0.8792407
C	0.36823229	-2.25912302	0.00156672
H	1.23763311	-1.74864804	-0.43523431
C	0.12603433	-3.59748452	-0.3476235
H	0.80599447	-4.11578358	-1.03426087
N	1.48048717	1.502671	0.32275636
N	-1.12302326	0.79118965	-0.7637978
N	0.84409437	0.09198175	2.71624587
Nb	-0.15769254	0.54705983	1.30408644
H	1.71306111	-1.56533932	3.63240286
H	2.77486745	-0.12972312	3.48489653
H	1.46081003	-0.14842381	4.7077958
H	2.2385085	3.16122034	2.30141669
H	3.43688396	-0.28835955	0.00860518
H	-1.38471792	-1.40642484	-2.27627133
H	-3.43865456	1.17210819	0.5077091
F	-1.60285672	1.53080956	2.07131521
