50
Structure: R13 Stoichiometry: C20H25P2RuON+
C -4.056788 -0.340323 -0.361332
C -2.751814 -0.231625 -0.815448
C -2.026449 0.985079 -0.550115
C -2.646732 2.042960 0.222340
C -3.999034 1.877991 0.659338
C -4.684380 0.717203 0.363142
C -1.863507 3.174653 0.513342
C -0.525106 3.245536 0.085806
C -0.017787 2.136920 -0.697265
C 1.354286 2.133655 -1.138245
C 2.162309 3.208853 -0.803218
C 1.660319 4.310504 -0.047293
C 0.351243 4.334533 0.390070
H -4.619489 -1.261097 -0.551957
H -4.472259 2.678075 1.238961
H -5.718807 0.590282 0.699143
H -2.293812 3.999188 1.093982
H 3.210757 3.215567 -1.122081
H 2.332828 5.140919 0.191916
H -0.028466 5.173866 0.982762
N -0.770160 1.071480 -1.014745
Ru 0.811511 -1.366009 0.979028
C -2.019889 -1.352398 -1.494641
H -1.334356 -0.951860 -2.258724
H -2.724592 -2.065522 -1.957556
C 1.842458 0.923729 -1.873330
H 1.056604 0.554550 -2.552192
H 2.758849 1.143627 -2.448880
P -0.949736 -2.340151 -0.293751
P 2.238476 -0.524113 -0.718464
C 3.871771 0.066513 -0.062322
H 4.333745 -0.742077 0.528363
H 4.560207 0.375051 -0.869695
H 3.689752 0.918255 0.613933
C 2.818404 -1.733341 -2.013346
H 3.608376 -1.303994 -2.655402
H 3.208206 -2.639201 -1.518331
H 1.962006 -2.024845 -2.644501
C -2.264343 -3.116628 0.749639
H -3.057812 -3.582775 0.137625
H -1.791225 -3.874180 1.394979
H -2.696818  -2.338807  1.398938
C -0.494247  -3.767588  -1.397253
H 0.081656   -4.505883  -0.813606
H -1.389777  -4.259140  -1.817460
H 0.141679   -3.405483  -2.221474
C 1.796512   -0.633032  2.382709
O 2.327975   -0.139588  3.300358
H -0.029193  -0.061651  1.080038
H -0.101699  -1.987342  2.202121
50
Structure: P13 Stoichiometry: C20H25P2ORuN+
C 2.233404 -3.314857 0.873067
C 1.356297 -2.215843 0.854432
C 1.735344 -1.036315 0.152508
C 3.015579 -0.975674 -0.462316
C 3.881629 -2.072630 -0.389684
C 3.492471 -3.252935 0.262760
C 3.342796 0.292762 -1.220700
C 2.806697 1.498204 -0.481514
C 1.541849 1.333976 0.131140
C 0.938763 2.428637 0.809252
C 1.584309 3.675993 0.801347
C 2.831275 3.841376 0.181257
C 3.444350 2.744725 -0.443765
H  1.928282   -4.222660  1.407474
H  4.866260   -2.007320  -0.867884
H  4.168082   -4.113369  0.302555
H  4.425424   0.380019   -1.412133
H  1.115391   4.521272   1.319325
H  3.326620   4.817608   0.195059
H  4.421031   2.862475   -0.928118
N  0.889968   0.089304   0.096231
Ru -1.013539  0.020583   -0.762083
C  0.032026   -2.275560  1.570081
H  -0.074122  -1.422053  2.267527
H  -0.074728  -3.217911  2.135649
C  -0.337764  2.210934   1.580370
H  -0.197015  1.395571   2.316398
H  -0.639304  3.124936   2.122583
P  -1.342955  -2.071105  0.334458
P  -1.760900  1.632727   0.532411
C  -2.391905  3.151063   -0.291949
H  -3.200433  2.877295   -0.989469
H  -2.767594  3.877329   0.449943
H  -1.562791  3.591224   -0.868447
C  -3.075347  1.266530   1.776623
H  -3.330138  2.170606   2.357672
H  -3.975039  0.895264   1.259173
H  -2.711898  0.485303   2.463508
C  -1.160669  -3.579194  -0.721837
H  -1.228058  -4.505093  -0.123468
H  -1.948651  -3.579895  -1.493379
H  -0.175920  -3.540687  -1.216898
C  -2.884830  -2.448780  1.281101
H  -3.751315  -2.364483  0.603956
H  -2.850561  -3.465466  1.710616
H  -3.007421  -1.715351  2.093691
C  -2.600019  -0.049111  -1.728931
O  -3.603795  -0.095487  -2.335651
H  -0.560675  1.378238   -1.550520
H  2.841177   0.246115   -2.214054
