62
File created by wolfsort 
Mn	0.54696	-0.09672	-0.11965
C	0.54696	0.36509	1.57826
O	0.54695	0.71825	2.69852
C	0.54695	-1.84314	0.22666
O	0.54694	-2.98527	0.51942
P	2.78944	0.14425	-0.26089
C	2.97776	1.9119	-0.80617
C	1.74219	2.64784	-0.28076
N	0.54696	1.91358	-0.65547
C	-0.64827	2.64784	-0.28076
C	-1.88384	1.91191	-0.80617
P	-1.69552	0.14426	-0.26089
C	-2.64643	0.06818	1.35604
C	-4.15266	0.35532	1.26135
H	-4.37614	1.25303	0.66032
H	-4.69518	-0.49867	0.82078
H	-4.56394	0.51907	2.27419
C	-2.36893	-1.22043	2.14913
H	-1.29132	-1.42698	2.23147
H	-2.84787	-2.0957	1.67949
H	-2.77827	-1.12088	3.17069
H	-2.16733	0.90425	1.9035
C	-2.59322	-0.84975	-1.58472
C	-2.7291	-2.33264	-1.20031
H	-1.78492	-2.7487	-0.81288
H	-3.50703	-2.47123	-0.42935
H	-3.03097	-2.92478	-2.08332
C	-3.92334	-0.26718	-2.09139
H	-4.72455	-0.36375	-1.34156
H	-3.83578	0.7974	-2.365
H	-4.24594	-0.81858	-2.99405
H	-1.86051	-0.78139	-2.41324
H	-2.83256	2.36725	-0.47172
H	-1.86496	1.91342	-1.91102
H	-0.62227	3.67322	-0.71578
H	-0.7509	2.79625	0.8269
H	1.71619	3.67322	-0.71578
H	1.84482	2.79625	0.82689
H	3.92648	2.36724	-0.47172
H	2.95888	1.91342	-1.91103
C	3.74035	0.06818	1.35604
C	5.24658	0.35532	1.26136
H	5.47007	1.25302	0.66033
H	5.7891	-0.49868	0.82079
H	5.65786	0.51907	2.2742
C	3.46285	-1.22043	2.14914
H	2.38523	-1.42697	2.23147
H	3.94178	-2.0957	1.67949
H	3.87219	-1.12088	3.17069
H	3.26125	0.90426	1.90351
C	3.68715	-0.84975	-1.58472
C	3.82303	-2.33264	-1.20031
H	2.87885	-2.7487	-0.81289
H	4.60095	-2.47123	-0.42934
H	4.1249	-2.92478	-2.08332
C	5.01727	-0.26718	-2.09138
H	5.81847	-0.36376	-1.34155
H	4.92971	0.7974	-2.36499
H	5.33987	-0.81858	-2.99404
H	2.95445	-0.78139	-2.41324
H	0.54695	0.14243	-1.87528
H	0.54698	-0.66039	-1.84441
62
File created by wolfsort 
Mn	0.5520693	-0.2127105	0.0384917
C	0.4800069	-0.4240637	1.798586
O	0.451186	-0.552716	2.9669999
C	0.5651816	-1.9465997	-0.3141789
O	0.5796588	-3.0926322	-0.5781157
P	2.7757253	0.0708599	0.1365584
C	2.9567745	1.891982	0.5086152
C	1.7991544	2.6604666	-0.1460827
N	0.5648589	1.9074778	-0.0033924
C	-0.663977	2.6510266	-0.2128192
C	-1.8316381	1.8898055	0.4294861
P	-1.6708458	0.1067531	-0.0826753
C	-2.8806932	-0.8765886	0.9711619
C	-2.4131782	-2.3371061	1.0991998
H	-2.2000073	-2.7992832	0.1223577
H	-1.4920836	-2.3989024	1.7021713
H	-3.1947009	-2.9356761	1.602115
C	-3.1085006	-0.2486291	2.3563465
H	-2.1609399	-0.1556777	2.9139145
H	-3.7811449	-0.8976391	2.94632
H	-3.576789	0.7475081	2.2902141
H	-3.8392089	-0.8578242	0.4184759
C	-2.4246472	0.0745217	-1.8074723
C	-2.3161477	-1.3284623	-2.4261794
H	-1.2907321	-1.724969	-2.3485849
H	-2.9981169	-2.0390658	-1.9259586
H	-2.5975441	-1.2959371	-3.4944205
C	-3.8519369	0.6322862	-1.9039083
H	-4.5718354	0.0052151	-1.3476868
H	-3.9260986	1.6628641	-1.5179626
H	-4.179022	0.6467378	-2.9598041
H	-1.74464	0.7465493	-2.3660066
H	-1.7017648	1.9048298	1.524558
H	-2.8145092	2.329848	0.1839513
H	-0.8942123	2.8446775	-1.2946021
H	-0.5829894	3.654691	0.2569478
H	2.0594264	2.8894805	-1.2102897
H	1.6946242	3.6480039	0.3532182
H	2.8640088	1.9637892	1.6075721
H	3.9446001	2.2923159	0.218002
C	3.7028594	-0.7101093	1.5720463
C	5.161187	-0.246687	1.707668
H	5.2505496	0.852927	1.7240401
H	5.7871134	-0.6306023	0.8822557
H	5.5908957	-0.632121	2.6502807
C	3.5822528	-2.2416379	1.598276
H	2.5379135	-2.5693838	1.4740742
H	4.1882117	-2.7083625	0.8021021
H	3.9518488	-2.6281382	2.5652169
H	3.127996	-0.3158127	2.4319152
C	3.8455082	-0.2575741	-1.377109
C	3.6980866	0.8387125	-2.4433274
H	4.019582	1.8282312	-2.0780231
H	2.6511465	0.9190602	-2.7849505
H	4.3182194	0.5862016	-3.3228784
C	3.5147468	-1.6359321	-1.9748082
H	2.4922052	-1.6382439	-2.3885696
H	3.5691704	-2.4461194	-1.2308199
H	4.2196855	-1.8711408	-2.7932369
H	4.8918329	-0.2564927	-1.016626
H	0.6085914	0.9563068	-1.1744614
H	0.6225959	0.1249815	-1.6566583
