51
Structure: R28 Stoichiometry: C17H28IrP2O2N+
C -3.048370 0.724819 -1.076065
C -2.219473 0.021488 -0.160913
C -2.901101 -0.770729 0.802742
C -4.301786 -0.843233 0.863027
C -5.088241 -0.135699 -0.058805
C -4.449151 0.645418 -1.034389
Ir -0.175950 0.133454 -0.235168
P 0.195003 -2.051856 -0.784229
C 1.947042 -2.243360 -0.181289
C 2.696774 -0.940249 -0.270069
N 1.954037 0.217781 -0.275877
C 2.609569 1.425125 -0.267708
C 4.006064 1.499573 -0.234932
C 4.767807 0.324608 -0.250515
C 4.096851 -0.903188 -0.278600
C 1.758374 2.670374 -0.352959
P 0.017322 2.342527 0.253680
H 4.651493 -1.846283 -0.282817
H 4.487873 2.481829 -0.218334
H 5.861312 0.365745 -0.239620
H 2.249156 3.525694 0.144914
H 1.636510 2.938255 -1.421132
H 1.805191 -2.507118 0.893258
H 2.505838 -3.065289 -0.663395
H -2.579799 1.346220 -1.850485
H -5.047768 1.200829 -1.767520
H -6.181840 -0.194412 -0.019804
H -4.782114 -1.463605 1.630189
H -2.314554 -1.351652 1.527306
H 0.023418 -0.209630 1.835234
O 0.041690 -0.377483 2.853933
H -0.903663 -0.293422 3.081913
H 0.565948 -2.001249 2.868106
O 0.898901 -2.939456 2.756114
H 1.646006 -2.989477 3.376876
C 0.015128 2.887875 2.019214
H 0.445044 3.897979 2.140355
H -1.030853 2.891592 2.371535
H 0.570144 2.148640 2.618940
C -0.968721 3.666620 -0.571857
H -2.022095 3.548464 -0.267679
H -0.614416 4.677032 -0.301057
H  -0.909605  3.529270  -1.663919
C  0.248302   -2.443944 -2.589261
H  0.641251   -3.459730 -2.774073
H  -0.773177  -2.362948 -2.997645
H  0.884094   -1.698511 -3.094294
C  -0.682236  -3.490373 -0.046552
H  -1.764898  -3.361746 -0.209810
H  -0.344857  -4.438641 -0.500841
H  -0.464357  -3.503550 1.034310
51
Properties=species:S:1:pos:R:3 end-aligned_to-start.xyz=T pbc="F F F"
C      -2.94367492      -0.03974080      -1.55678256 
C      -2.24781052       0.03824070      -0.32213716 
C      -3.04982128       0.06393921       0.84745252 
C      -4.45130091       0.01580096       0.78943757 
C      -5.11030683      -0.05385220      -0.44785286 
C      -4.34558505      -0.07843175      -1.62388203 
Ir      -0.20436464       0.14062009      -0.31822111 
P       0.16107347      -2.07286573      -0.88412255 
C       1.92518908      -2.18128295      -0.71600079 
C       2.65154202      -0.97538008      -0.54127780 
N       1.96034086       0.22368276      -0.35065602 
C       2.62905177       1.37705150      -0.06176503 
C       4.01659207       1.42144716       0.06908120 
C       4.74747311       0.23058793      -0.15223497 
C       4.08411779      -0.94190476      -0.46468074 
C       1.80213323       2.64487502       0.04395443 
P       0.01856610       2.28665987       0.47037313 
H       4.63533837      -1.87166046      -0.63493460 
H       4.51807038       2.36357042       0.30498526 
H       5.84083298       0.23859478      -0.07976886 
H       2.26680400       3.36915813       0.73582112 
H       1.76946458       3.12802005      -0.95282121 
H       2.04876729      -2.31243381       1.25543774 
H       2.47840964      -3.09106805      -0.98041094 
H      -2.37462501      -0.06955064      -2.49781901 
H      -4.84263404      -0.13420455      -2.60021988 
H      -6.20432138      -0.09042400      -0.49488525 
H      -5.03478551       0.03515243       1.71836783 
H      -2.56107890       0.12340528       1.82859400 
H      -0.14525267      -0.27177591       1.18809393 
O       0.05983406      -0.71755225       3.00806420 
H      -0.68749046      -1.33615058       3.09070510 
H       0.84240696      -1.30419063       2.77425417 
O       2.15367406      -2.21385198       2.24935720 
H       2.94296093      -1.64524394       2.31588890 
C      -0.13742536       2.51202862       2.28874446 
H       0.30866053       3.46578249       2.62004207 
H      -1.21252548       2.50164171       2.53695113 
H       0.32853691       1.65120238       2.79441723 
C      -0.89970058       3.72828819      -0.22202186 
H      -1.96893168       3.59673186       0.01407373 
H      -0.54255624       4.68570231       0.19666261 
H      -0.78713063       3.73794341      -1.31880123 
C      -0.35489222      -2.64803444      -2.56832687 
H      -0.00967166      -3.68142178      -2.74904101 
H      -1.45457994      -2.60620526      -2.65119523 
H       0.09257360      -1.98173867      -3.32380547 
C      -0.64067310      -3.32912636       0.20563665 
H      -1.73496731      -3.26537093       0.08093365 
H      -0.29357122      -4.34935111      -0.03396629 
H      -0.38561925      -3.09293566       1.25033450 
