67
File created by wolfsort 
Fe	-0.772465	0.665003	-0.021624
C	-1.219901	0.145225	-1.620542
O	-1.514303	-0.117793	-2.725971
C	0.310118	-0.890978	0.349217
N	-0.65272	-1.695818	0.854036
C	-0.171453	-2.954082	1.20045
C	1.165384	-2.925448	0.895571
N	1.455477	-1.64591	0.379215
C	2.764982	-1.184442	0.014468
C	3.033982	-0.866689	-1.334317
C	4.311604	-0.375348	-1.649002
C	5.30693	-0.198691	-0.672381
C	4.998253	-0.528828	0.657813
C	3.735854	-1.023245	1.027173
C	3.431908	-1.345195	2.472783
H	4.129647	-0.815678	3.141517
H	2.400881	-1.06181	2.740492
H	3.531259	-2.427292	2.677056
H	5.755829	-0.384563	1.43735
C	6.678967	0.312079	-1.049936
H	7.208365	0.727362	-0.176314
H	6.616558	1.096212	-1.823894
H	7.302713	-0.504457	-1.460702
H	4.531583	-0.120855	-2.692745
C	1.979042	-1.006353	-2.402752
H	2.439348	-1.053374	-3.402792
H	1.359926	-1.905877	-2.250905
H	1.287695	-0.146189	-2.376623
H	1.936739	-3.688224	0.978705
H	-0.793354	-3.747931	1.610018
C	-1.846979	-0.849701	0.951279
C	-3.075745	-1.329009	0.290941
N	-4.218254	-0.700195	0.664219
C	-5.36156	-1.034871	0.051356
C	-5.457617	-2.013248	-0.947896
C	-4.279164	-2.673667	-1.328495
C	-3.07691	-2.331177	-0.708602
H	-2.138566	-2.813967	-0.998616
H	-4.298092	-3.445403	-2.106074
H	-6.421697	-2.24818	-1.409588
H	-6.259142	-0.49281	0.381742
H	-2.034091	-0.558769	1.9951
C	0.553239	2.232687	0.271529
C	-0.439228	2.601659	-0.696744
C	-1.748675	2.508164	-0.068853
C	-1.546208	2.116433	1.295352
C	-0.136134	1.924452	1.512982
C	0.517328	1.550676	2.812969
H	1.513167	1.11174	2.640702
H	-0.083152	0.813424	3.372607
H	0.651808	2.434941	3.465787
C	-2.640354	1.963015	2.313407
H	-2.270541	1.475077	3.23021
H	-3.473138	1.355919	1.916951
H	-3.031975	2.95704	2.601438
C	-3.073417	2.834227	-0.697457
H	-3.869979	2.198475	-0.277911
H	-3.051366	2.669339	-1.787246
H	-3.349632	3.892497	-0.52154
C	-0.172194	3.07747	-2.096954
H	-0.972144	2.770774	-2.790183
H	0.778643	2.673759	-2.48198
H	-0.105579	4.182002	-2.12487
C	2.04113	2.282179	0.075157
H	2.560409	1.544915	0.707396
H	2.318099	2.069384	-0.969656
H	2.437686	3.284476	0.331176
67
File created by wolfsort 
Fe	-1.02768497	0.01059885	-0.26944798
C	0.46959716	0.22308519	-1.17259025
O	1.25053995	0.50919174	-1.99189128
C	-0.38817412	0.65611813	1.50160804
N	-1.19152062	0.6842466	2.56790784
C	-0.45104959	1.09799512	3.65397908
C	0.85177125	1.32565992	3.27220805
N	0.8931868	1.04207628	1.90795949
C	2.09240853	1.12777253	1.13268472
C	3.06039903	0.1088022	1.24745316
C	4.21843524	0.20854786	0.4585109
C	4.43440027	1.29186668	-0.40957236
C	3.47214332	2.31658384	-0.45255229
C	2.30089262	2.25827941	0.3149307
C	1.26447847	3.35174059	0.27185124
H	1.53993196	4.13490899	-0.45236615
H	0.28393419	2.93299417	-0.00751973
H	1.13776088	3.81590413	1.26669631
H	3.63270432	3.18022343	-1.10889289
C	5.6571615	1.34523089	-1.29701587
H	6.03504141	2.37694886	-1.40258601
H	5.41586712	0.97962136	-2.31346375
H	6.47210432	0.7156252	-0.90156635
H	4.97214927	-0.58586125	0.52457624
C	2.87310583	-1.02843679	2.22186599
H	3.53451242	-1.87387532	1.97427238
H	3.10899876	-0.70319145	3.25215022
H	1.82934889	-1.38021697	2.23244137
H	1.74006669	1.66416816	3.80436816
H	-0.89701176	1.2113941	4.64445031
C	-0.7498606	-1.68178047	0.22587637
C	0.43123215	-2.53060419	0.17738045
N	1.49031837	-2.12650542	-0.56807687
C	2.57912172	-2.89025027	-0.62280135
C	2.70566324	-4.11017097	0.06801189
C	1.62340649	-4.54479882	0.84608932
C	0.47049783	-3.75675716	0.89349205
H	-0.39860525	-4.06596447	1.48319416
H	1.67652609	-5.48748691	1.40122995
H	3.62484424	-4.69959631	-0.009491
H	3.40332306	-2.51173981	-1.24288264
H	-1.609253	-2.21160444	0.68027627
C	-2.59368692	1.55085596	-0.14661919
C	-2.00400741	1.57022884	-1.44456451
C	-2.15756096	0.24837425	-2.01600958
C	-2.91198695	-0.55380677	-1.08140015
C	-3.15791966	0.2353062	0.08668746
C	-3.93205889	-0.16524009	1.30676261
H	-3.33729425	0.08375178	2.20359175
H	-4.14562201	-1.24682643	1.30912259
H	-4.89985703	0.36967116	1.34909937
C	-3.42309087	-1.94069705	-1.34566537
H	-3.58841532	-2.49958156	-0.41054707
H	-2.72193495	-2.5182784	-1.9697363
H	-4.39233026	-1.89203035	-1.87687912
C	-1.76280321	-0.15138688	-3.40902587
H	-1.6126179	-1.24027899	-3.48489376
H	-0.82739168	0.33965742	-3.72049925
H	-2.55276349	0.13409062	-4.13029591
C	-1.41676164	2.74855471	-2.16896974
H	-0.42710557	2.51685385	-2.59697138
H	-1.30524299	3.61654786	-1.50146042
H	-2.07955061	3.04943096	-3.00225532
C	-2.73949125	2.70984666	0.79100235
H	-2.58048796	2.37495987	1.8284284
H	-2.01579407	3.50977375	0.5675508
H	-3.75811363	3.13401744	0.70579872
