15
Structure: R33 Stoichiometry: CH11N2Pt+
C -2.048474 -0.414344 -0.081640
Pt -0.012689 -0.191301 -0.000763
N 2.256113 -0.059289 -0.060911
N -0.299445 2.054899 0.012490
H 0.106910 -1.741889 -0.084422
H 2.644832 -0.206304 -1.003339
H -0.135301 -0.630550 1.456068
H -2.381457 -1.411665 0.240615
H -2.303988 -0.272068 -1.151777
H -2.557705 0.352273 0.529503
H 0.101490 2.575181 -0.780999
H 0.086559 2.493876 0.859818
H -1.304358 2.280642 0.016764
H 2.676602 0.811941 0.288439
H 2.650321 -0.813153 0.517660
15
Properties=species:S:1:pos:R:3 end-aligned_to-start.xyz=T pbc="F F F"
C      -2.11472250      -0.53986969       0.10534731 
Pt       0.21936969      -0.15146169       0.10608721 
N       2.25640001      -0.01841003      -0.19161938 
N      -0.12958324       2.08252375       0.17541399 
H       0.44147879      -1.69782441       0.07353113 
H       2.51721875      -0.44961125      -1.09125609 
H      -1.32338308      -0.47555052       0.96777594 
H      -2.55703020      -1.52468313       0.31157598 
H      -1.80319581      -0.51114460      -0.95505680 
H      -2.81071941       0.28323425       0.32171330 
H       0.27930810       2.60595181      -0.61108727 
H       0.23794373       2.51753854       1.03337440 
H      -1.13132792       2.31888198       0.15950592 
H       2.64547043       0.93444614      -0.18978652 
H       2.75218266      -0.54577217       0.54198687 
