22
Structure: R4 Stoichiometry: C7H12N2Ti+
C -1.403363 -1.222040 0.823481
C -1.313454 -1.379412 -0.587693
C -1.703182 -0.153561 -1.200172
C -2.030543 0.764953 -0.164442
C -1.841069 0.108485 1.087295
Ti 0.301763 0.301704 0.136320
N 0.687534 1.883026 -0.876693
N  1.186214   0.511696   1.599272
C  2.563557   -0.748660  0.030078
C  1.780840   -1.175279  -1.017002
H  -1.730941  0.047073   -2.273076
H  -1.020635  -2.289210  -1.114478
H  -2.343338  1.801328   -0.299467
H  -1.993632  0.549849   2.072979
H  -1.156053  -1.973819  1.575004
H  1.339863   -2.176401  -1.012349
H  2.766714   -1.395836  0.887906
H  1.648148   0.464366   2.515525
H  0.161790   2.252188   -1.674033
H  1.354062   2.594868   -0.566112
H  1.740821   -0.604827  -1.951407
H  3.161457   0.162953   -0.046847
22
Properties=species:S:1:pos:R:3 end-aligned_to-start.xyz=T pbc="F F F"
C      -1.32194138      -1.24404579       0.72940104 
C      -1.38654202      -1.32518610      -0.69061899 
C      -1.87689886      -0.08061826      -1.17886461 
C      -2.10354569       0.77274472      -0.06394917 
C      -1.75660251       0.05534900       1.11754902 
Ti       0.24647966       0.33030219      -0.10050286 
N       0.49626433       1.93167182      -1.10072455 
N       1.50870621       0.34082385       1.25651241 
C       2.38161808      -0.64793980       0.52264718 
C       1.70107103      -0.99853060      -0.82440257 
H      -2.01529784       0.18370667      -2.22903319 
H      -1.10810122      -2.18630915      -1.29839681 
H      -2.44891423       1.80691608      -0.10504387 
H      -1.79778502       0.44109889       2.13806107 
H      -0.95790931      -2.02361169       1.40135584 
H       1.49935817      -2.07386664      -0.93210072 
H       2.49996768      -1.56095990       1.13901238 
H       1.79544922       0.49458180       2.22357009 
H      -0.13990649       2.38417933      -1.76146325 
H       1.31488216       2.53242632      -0.96419737 
H       2.24163007      -0.60730940      -1.69928631 
H       3.38457095      -0.20197933       0.36456426 
