45
Structure: R21 Stoichiometry: C11H29N4Ta+
Ta 0.025488 0.072926 -0.091869
N 0.264319 2.078376 -0.135247
N -2.016989 0.263629 -0.328478
N 2.079164 -0.299616 -0.179255
N -0.139742 -0.700283 1.763679
C 0.000913 -1.000564 -2.086500
H -0.948873 -0.784011 -2.601678
H 0.851468 -0.793179 -2.753688
C 0.040813 -2.327363 -1.445080
H 1.037381 -2.771978 -1.304147
C -1.013835 -2.981099 -0.888943
H -2.040642 -2.617088 -1.001361
H -0.875141 -3.918087 -0.339073
H -2.996714 0.343341 -2.223797
C -2.571529 1.016829 -1.446059
H -1.791079 1.634456 -1.922119
H -3.391562 1.688010 -1.111862
H -3.818481 0.212851 0.793831
C -3.062872 -0.478474 0.360304
H -3.610978 -1.158950 -0.328625
H -2.631646 -1.086583 1.169706
H 3.810100 -0.133201 -1.403239
C 3.029146 -0.872197 -1.114188
H 2.536546 -1.213901 -2.035799
H 3.565209 -1.739884 -0.668709
H 3.292930 -0.709261 1.532372
C 2.800528 0.144209 1.016891
H 3.594721 0.877861 0.758457
H 2.117520 0.626281 1.735596
H 2.154144 2.040388 -1.079521
C 1.443544 2.766915 -0.660761
H 1.955218 3.350072 0.134838
H 1.155585 3.481637 -1.460196
H -0.998257 3.778648 -0.363309
C -0.694847 3.038160 0.407002
H -1.597238 2.517811 0.761971
H -0.253552 3.605908 1.254087
C -0.698298 0.103706 2.841369
H -0.955745 1.112643 2.476312
H 0.024064 0.215193 3.678517
H -1.624825 -0.348203 3.257720
H -0.625783 -2.682316 2.383308
C 0.255731 -2.034043 2.184260
H 0.862027 -1.990993 3.114080
H 0.859948 -2.512284 1.398132
45
Properties=species:S:1:pos:R:3 C11H29N4Ta+=T P21=T Structure:=T pbc="F F F" Stoichiometry:=T
Ta      -0.03500248      -0.19943164       0.13341543 
N       0.40140876       1.73193069      -0.25074053 
N      -2.06013240       0.06912728      -0.16782272 
N       1.97850431      -0.75266991       0.19583894 
N      -0.33322812      -0.60750294       2.08926269 
C      -0.40152059      -0.22734977      -3.16846426 
H      -1.48689972      -0.12670564      -3.06225093 
H       0.08615503       0.40507342      -3.91795580 
C       0.30731163      -1.12873061      -2.43770562 
H       1.39089062      -1.18206085      -2.62126025 
C      -0.20649525      -1.93335331      -1.31428771 
H      -1.26699345      -2.21464615      -1.41713271 
H       0.40082814      -2.81981396      -1.07576540 
H      -3.19865638       0.69531260      -1.86376301 
C      -2.71013794       1.10813220      -0.95326784 
H      -1.97594222       1.86328060      -1.27196823 
H      -3.50800237       1.60961595      -0.36273219 
H      -3.88756312      -0.54415703       0.73568789 
C      -3.01319361      -0.97060408       0.19882498 
H      -3.40661690      -1.50089958      -0.69740258 
H      -2.53642562      -1.71945400       0.85388604 
H       3.64541063      -1.38132337      -0.96533736 
C       2.82251648      -1.80137634      -0.34479613 
H       2.25002559      -2.50226549      -0.96911298 
H       3.30760128      -2.39056572       0.46581379 
H       3.30439180      -0.42598242       1.83839781 
C       2.79898117       0.13620887       1.02337661 
H       3.59198358       0.63165418       0.42149744 
H       2.18412171       0.92415585       1.48866901 
H       1.72991806       1.40303494      -1.84540610 
C       1.20511614       2.23539827      -1.35198004 
H       1.96371762       2.96045185      -0.98752874 
H       0.58212314       2.75074840      -2.11568444 
H      -0.77170888       3.48509482       0.08345200 
C      -0.10214394       2.78120375       0.62403393 
H      -0.68078644       2.34503513       1.45614629 
H       0.72841912       3.37797686       1.05884578 
C      -1.36890500       0.00954104       2.91502003 
H      -2.01097480       0.65894260       2.30096364 
H      -0.91872106       0.61843323       3.72815901 
H      -2.00842642      -0.76086964       3.39587147 
H      -0.13398977      -2.31426580       3.34071782 
C       0.49055794      -1.51612252       2.88713866 
H       0.99217134      -0.97659470       3.71908504 
H       1.25819142      -1.98731507       2.25719026 
