57
Structure: R12 Stoichiometry: C16H35NSiMoOP2+
Mo -0.261509 0.035017 -0.370790
Si -0.349600 0.250597 2.194103
P -0.432971 -2.425903 -0.180876
P -0.412439 2.497564 -0.482557
N 1.500581 -0.006132 -0.377514
H -0.933380 0.090743 -2.025485
C -0.618477 -3.545885 -1.658297
H -0.587470 -4.615443 -1.380955
H 0.205441 -3.321865 -2.356418
H -1.566145 -3.329328 -2.177876
C -1.706523 -3.113176 0.980118
H -1.671415 -4.216805 1.008851
H -2.718688 -2.793710 0.682774
H -1.501089 -2.709713 1.985169
C 1.122208 -3.094657 0.561221
H 1.058761 -4.187398 0.707886
H 1.289677 -2.590160 1.526651
H 1.965720 -2.857973 -0.107384
C -0.641471 3.316011 -2.131967
H -0.622659 4.419257 -2.064180
H -1.603844 2.984977 -2.557268
H 0.160290 2.968974 -2.804772
C -1.724412 3.325990 0.526637
H -1.702943 4.422099 0.393820
H -1.559039 3.076966 1.587509
H -2.712308 2.938956 0.228252
C 1.131807 3.297661 0.136969
H 1.066307 4.398880 0.086746
H 1.980796 2.947227 -0.472620
H 1.293105 2.974374 1.178408
C -2.077478 0.300277 3.043828
H -2.670204 -0.599435 2.794382
H -2.658273 1.176431 2.701879
H -1.989071 0.357334 4.144328
H 0.374594 -0.862222 2.937451
H 0.351970 1.466942 2.782049
C 2.862117 -0.041376 -0.216752
C 5.100770 -0.316133 -1.146699
C 3.714213 -0.277492 -1.324929
C 3.432647 0.156308 1.066747
C 4.820012 0.120325 1.228202
C 5.659811 -0.116650 0.126377
H  5.752755  -0.500548  -2.007631
H  3.260278  -0.426152  -2.309269
H  2.761246  0.333337   1.912351
H  5.252615  0.275309   2.222644
H  6.746303  -0.145740  0.259732
C  -3.538876 -0.209735  -0.520275
O  -2.466518 0.156904   -0.005623
C  -4.837266 0.299515   0.050225
H  -5.353959 0.923413   -0.704177
H  -5.514558 -0.543991  0.278558
H  -4.652795 0.888446   0.960127
C  -3.552039 -1.121272  -1.710675
H  -4.471200 -1.007937  -2.308978
H  -2.632075 -0.905708  -2.294237
H  -3.493995 -2.174111  -1.377889
57
Structure: P12 Stoichiometry: C16H35NMoSiOP2+
Mo 0.348587 0.004939 -0.163936
Si 0.308406 0.056368 2.315152
P 0.191572 2.489677 -0.205660
P 0.537903 -2.479563 -0.091599
N -1.434129 -0.105634 -0.231418
H 3.434078 1.478247 -1.586236
C 0.351157 3.364765 -1.840042
H 0.238124 4.459866 -1.742113
H -0.421962 2.977719 -2.525472
H 1.340411 3.138804 -2.273987
C 1.422721 3.414215 0.821353
H 1.300914 4.507543 0.722316
H 2.440702 3.128067 0.508782
H 1.288357 3.122268 1.875894
C  -1.422585  3.125894  0.416623
H  -1.455152  4.229422  0.406725
H  -1.569703  2.753540  1.443600
H  -2.231550  2.723172  -0.214643
C  0.792875   -3.411531 -1.680765
H  0.837118   -4.504276 -1.521480
H  1.732583   -3.072838 -2.148958
H  -0.038710  -3.176119 -2.366584
C  1.897114   -3.167234 0.958634
H  1.936475   -4.270021 0.911584
H  1.731401   -2.847707 2.000845
H  2.857812   -2.748067 0.615828
C  -0.970861  -3.287225 0.593570
H  -0.865427  -4.385656 0.629699
H  -1.834040  -3.014684 -0.035638
H  -1.144588  -2.890877 1.607301
C  2.070022   0.204548  3.069103
H  2.554167   1.147972  2.759419
H  2.718292   -0.621980 2.727541
H  2.036532   0.183430  4.174327
H  -0.475618  1.190857  2.945094
H  -0.300096  -1.152612 2.998182
C  -2.799897  -0.133538 -0.278703
C  -4.894911  -0.170268 -1.538084
C  -3.496874  -0.144623 -1.515715
C  -3.550204  -0.149546 0.927818
C  -4.946406  -0.174534 0.889127
C  -5.628133  -0.185099 -0.340115
H  -5.419623  -0.178484 -2.500091
H  -2.915416  -0.132351 -2.443047
H  -3.005255  -0.139713 1.876704
H  -5.511696  -0.185716 1.827716
H  -6.722591  -0.204846 -0.363820
C  3.475881   0.453272  -1.152108
O  2.214902   0.146458  -0.622064
C  3.819559   -0.529794 -2.279051
H  3.028718   -0.518870 -3.048346
H  4.780178   -0.266956 -2.756366
H  3.899166   -1.555490 -1.876391
C  4.520225   0.445219  -0.029758
H  4.586368   -0.561056 0.419954
H  5.516064   0.725880  -0.416032
H  4.235095   1.153868  0.764867
