86
File created by wolfsort
Re     -0.099249     -0.756123     -0.665136
N       0.034257     -0.630553      1.545440
N      -0.005136      1.315551     -0.546485
O      -0.376056     -0.490815     -3.743892
O       0.120141     -3.813880     -1.165489
P      -2.486396     -0.832942     -0.019799
P       2.318641     -0.800887     -0.223482
C       1.153888     -0.153460      2.169268
C       1.294292     -0.139975      3.553497
C       0.235840     -0.674569      4.337938
C      -0.907747     -1.140070      3.728782
C      -1.069967     -1.069937      2.297036
C      -2.274852     -1.383831      1.657163
C       2.282970      0.317091      1.272600
C      -0.265449     -0.622222     -2.579791
C       0.087757      2.484676     -0.459214
C      -3.359923      0.898363      0.089586
C      -3.699975     -2.039561     -0.874061
C      -4.854713      0.860724      0.458619
C      -2.640171      1.630407      1.247794
C      -3.183191      1.654941     -1.244097
C      -4.208498     -1.435195     -2.196707
C      -2.940707     -3.336609     -1.198591
C      -4.871236     -2.416225      0.057930
C       3.495025     -0.004137     -1.504234
C       3.362739     -0.788655     -2.828679
C       2.974410      1.424611     -1.767408
C       4.969227      0.072886     -1.069899
C       3.099937     -2.402517      0.509525
C       2.082749     -3.075667      1.464193
C       3.449654     -3.373779     -0.636542
C       4.362570     -2.122090      1.353956
C      -0.020496     -2.674707     -0.918860
C       0.194743      3.888494     -0.295271
C       0.328717      4.428618      1.010045
C       0.168530      4.752566     -1.418713
C       0.434616      5.811115      1.176890
C       0.274515      6.132615     -1.230216
C       0.408046      6.665650      0.062318
H       0.330274     -0.712186      5.429150
H       2.211014      0.241831      4.009968
H      -1.736807     -1.541064      4.319471
H      -3.131340     -1.653367      2.284841
H       3.234875      0.357588      1.825202
H       2.073525      1.331172      0.891308
H      -5.482228      0.435944     -0.341460
H      -5.028122      0.291848      1.388277
H      -5.203046      1.897151      0.634476
H      -1.550520      1.490647      1.228562
H      -2.858557      2.713840      1.188108
H      -2.994873      1.254321      2.220819
H      -3.419362      2.727082     -1.100259
H      -2.155942      1.572708     -1.629548
H      -3.860721      1.266545     -2.020683
H      -4.889920     -0.584018     -2.038312
H      -3.368020     -1.100367     -2.829587
H      -4.767898     -2.207827     -2.756769
H      -2.427797     -3.737660     -0.309235
H      -3.665408     -4.094541     -1.551338
H      -2.200977     -3.179448     -1.996919
H      -5.527626     -3.132690     -0.471363
H      -4.499175     -2.914891      0.968595
H      -5.486767     -1.556676      0.356066
H       3.774042     -1.806355     -2.759549
H       2.308202     -0.859448     -3.140171
H       3.921182     -0.251467     -3.617815
H       3.031727      2.070435     -0.874580
H       3.601514      1.884887     -2.553045
H       1.934532      1.402440     -2.127572
H       5.529711      0.669972     -1.813619
H       5.089673      0.563376     -0.088339
H       5.440187     -0.921873     -1.027196
H       1.940226     -2.487380      2.383461
H       1.099692     -3.241295      1.007420
H       2.496148     -4.060340      1.751663
H       4.306344     -3.014083     -1.230130
H       3.735753     -4.348495     -0.200037
H       2.595347     -3.546848     -1.309298
H       4.725727     -3.086655      1.754903
H       5.184435     -1.671852      0.780486
H       4.138204     -1.478111      2.220467
H       0.341896      3.754495      1.871414
H       0.062860      4.329005     -2.421341
H       0.536102      6.226482      2.184600
H       0.252263      6.798901     -2.098465
H       0.490111      7.748337      0.201367
86
Mapping 1
Re      0.006535     -1.011818     -0.656399
N       0.189892     -0.525978      1.481712
N       0.115426      1.139358     -0.725799
O       0.086719     -1.467247     -3.725635
O      -0.660253     -3.982688     -0.034838
P      -2.271663     -0.292630     -0.226221
P       2.371761     -1.324113     -0.277196
C       1.220351     -1.000160      2.239896
C       1.332719     -0.644495      3.588796
C       0.401224      0.244236      4.149612
C      -0.605670      0.779328      3.344329
C      -0.693737      0.378746      2.000291
C      -1.615637      1.006628      1.001298
C       2.247436     -1.848802      1.533298
C       0.023181     -1.292474     -2.564066
C      -0.351275     -2.880732     -0.329538
C      -0.630289      1.812209      0.067995
C      -3.263585      0.740647     -1.522923
C      -3.895711      1.991548     -0.879029
C      -4.356756     -0.132026     -2.175234
C      -2.319028      1.177133     -2.665445
C      -3.475442     -1.382382      0.789013
C      -3.888790     -2.607816     -0.058046
C      -2.715837     -1.915615      2.025437
C      -4.713306     -0.613235      1.290146
C       3.468230      0.246618     -0.280777
C       3.235468      0.949180     -1.638213
C       2.946318      1.177571      0.835523
C       4.968812      0.008151     -0.035947
C       3.329436     -2.772062     -1.085803
C       2.355266     -3.949694     -1.284110
C       3.815984     -2.326961     -2.480745
C       4.507253     -3.271939     -0.222860
C      -0.564635      3.295052      0.192682
C      -1.246137      4.027334      1.188631
C       0.233529      4.007058     -0.732480
C      -1.134929      5.423593      1.257447
C       0.340254      5.397729     -0.666255
C      -0.344097      6.115349      0.330494
H       0.479382      0.532520      5.202755
H       2.156594     -1.045856      4.185259
H      -1.322914      1.504240      3.739061
H      -2.393038      1.607390      1.495501
H       1.898116     -2.897793      1.479141
H       3.204631     -1.836208      2.082088
H      -4.548773      1.748566     -0.025514
H      -3.126642      2.704944     -0.541755
H      -4.513776      2.508088     -1.637195
H      -4.815435      0.450886     -2.994995
H      -3.930600     -1.048185     -2.617684
H      -5.162190     -0.412695     -1.479186
H      -1.902805      0.304577     -3.191283
H      -2.914944      1.764706     -3.389016
H      -1.479056      1.793088     -2.317333
H      -4.503338     -2.340265     -0.928383
H      -3.004555     -3.163710     -0.406378
H      -4.485700     -3.287637      0.578428
H      -2.519941     -1.123909      2.765057
H      -3.348364     -2.680738      2.512285
H      -1.761470     -2.389646      1.751680
H      -5.311095     -1.280656      1.939013
H      -4.427886      0.266547      1.893428
H      -5.368013     -0.275683      0.471748
H       3.588660      0.347565     -2.490070
H       2.160935      1.167839     -1.763600
H       3.794606      1.904229     -1.643381
H       3.156755      0.778871      1.842513
H       3.463478      2.150897      0.745820
H       1.867172      1.361124      0.730672
H       5.474229      0.990964      0.014933
H       5.156037     -0.507739      0.922436
H       5.448266     -0.565336     -0.845029
H       1.928713     -4.310652     -0.334203
H       1.524129     -3.677642     -1.951580
H       2.914380     -4.787803     -1.740983
H       4.607509     -1.562678     -2.429765
H       4.232473     -3.204885     -3.008456
H       2.981972     -1.933331     -3.086316
H       5.008099     -4.101504     -0.756190
H       5.262039     -2.498030     -0.026807
H       4.157364     -3.671981      0.744183
H      -1.865526      3.508561      1.926668
H       0.760964      3.425236     -1.494593
H      -1.669614      5.972039      2.040737
H       0.960000      5.930960     -1.395714
H      -0.259845      7.206117      0.382956
