102

Zn   -0.046559    -1.466227     0.641129
Zn    1.000019     2.496811    -0.660740
Zn    1.822538     1.355240     0.373504
Zn   -1.323038     0.998864    -0.683210
Zn    2.616047     0.325326     1.359369
Zn    0.187212     3.013877    -0.470745
Zn    0.087114    -0.880274    -0.151204
Zn    0.217154     1.494795     1.194926
Zn    0.312543     0.295855    -1.744018
Zn    1.783978    -0.611750     0.199852
Zn   -0.689841     1.062579     1.358627
Zn   -0.421060     2.348298    -0.884838
Zn    1.214369     0.529035    -0.060079
Zn    0.475373     0.735700    -0.717761
Zn    1.764304    -0.169462     1.514576
Zn   -0.427013     1.390976    -0.419444
Zn   -0.692975     1.318451     2.334250
Zn    0.072872     2.475539     0.894447
Zn   -1.526653    -0.349433     0.760469
Zn    0.852405     2.252107     1.575179
Zn   -0.649890    -0.283683     0.220953
Zn    2.433552    -0.491120     0.904782
Zn    1.963699     0.355525     0.622226
Zn   -0.598572    -0.051171    -1.488648
Zn    0.284982     0.132210     0.071991
Zn    1.683505     1.752191     1.334254
Zn    2.615706    -0.130883     0.038784
Zn   -1.389280     2.276459     0.523264
Zn    2.382313     0.769622    -0.280069
Zn    0.860145    -0.658470     1.620877
Zn   -0.220622     2.021007    -1.807915
Zn   -0.851589     3.010084     1.899094
Zn    0.916436     1.042126    -1.597467
Zn    1.676578     2.335041     0.040275
Zn    0.990640    -0.420707    -0.357210
Zn   -1.467878     0.318784     0.030263
Zn    1.631607     0.902587    -0.921285
Zn    0.195477    -0.237569    -0.917101
Zn    0.173263     1.216337    -2.212144
Zn    0.382909     1.719644    -1.030452
Zn    1.089956     0.128766    -1.171604
Zn    0.040362    -0.175257     1.860142
Zn   -0.160969     3.485805     1.369005
Zn   -0.293969     0.994283    -1.369084
Zn   -0.476320     0.500596    -2.260049
Zn    0.073835     2.742820     1.911929
Zn    0.011361     3.335904     0.445171
Zn    1.520540     2.658283     0.958902
Zn    0.093516     0.816017     1.985045
Zn   -0.838293     2.983528     0.929693
Zn    2.089547     1.683044    -0.536107
Zn    1.866126    -0.007766    -0.575276
Zn   -0.554969     1.744370     0.522759
Zn   -0.704851    -0.667272    -0.722133
Zn   -0.701322     0.046561     1.186037
Zn    2.531242     1.268813     1.095440
Zn   -0.810448     1.366756    -2.189614
Zn    0.232515     2.108165    -0.078979
Zn    0.953136     1.912613     0.625705
Zn   -0.768858     0.332414     2.157784
Zn    0.962209     1.296472     1.840256
Zn   -0.619787     2.286513     2.469460
Zn    0.152821     1.793735     2.148071
Zn    1.403539     1.819560    -1.228928
Zn    2.939895     0.631722     0.510761
Zn    2.324241     2.159600     0.730150
Zn   -1.025476     1.678766    -1.305452
Zn   -0.064710    -1.135140     1.609871
Zn   -1.492721    -0.633732    -0.165850
Zn   -1.542243     0.614351     0.979308
Zn   -1.202558     1.987399    -0.390157
Zn    0.924841     0.319232     1.714272
Zn    1.572028    -1.002560     1.062999
Zn   -0.598239     2.663873     0.038131
Zn    1.083653     0.915707     0.905973
Zn    0.885420    -1.077912     0.379647
Zn    0.328330     1.131952     0.230345
Zn   -0.526211     0.375160    -0.564210
Zn    1.075457    -0.132031     0.754256
Zn   -0.793013    -1.248165     0.066098
Zn   -1.500040     0.918122     1.924872
Zn    1.806875     0.806958     1.587870
Zn    0.159222    -0.536997     0.867296
Zn    0.198086     0.485088     1.028978
Zn    0.718910    -1.497630     1.209010
Zn    1.097693     1.526600    -0.326526
Zn    0.373972     2.656895    -1.364482
Zn   -0.656946     2.084664     1.507109
Zn    2.765822     1.533656     0.174833
Zn   -0.824482    -0.621112     1.910583
Zn   -1.426754     1.895891     2.128910
Zn   -1.548613     2.546321     1.444412
Zn   -0.594820     0.747561     0.385039
Zn   -1.545066     1.595987     1.209581
Zn   -1.382710     0.019965    -0.899970
Zn   -1.206327     0.703936    -1.604356
Zn   -1.419433     1.302914     0.262480
Zn   -1.544078    -0.035629     1.694543
Zn    0.706006     3.154515     1.187615
Zn   -0.812967    -0.971672     0.998297
Zn    0.741084     1.956137    -1.915350
Zn    0.849389     2.874092     0.258652
102

Zn     1.103201    -1.880336     0.375828
Zn    -0.032311    -0.745106    -0.710228
Zn     0.817406     1.100192     0.498087
Zn    -1.150284    -0.314642     1.290879
Zn    -0.747075    -1.002439     1.672945
Zn     1.413660     1.479886    -0.188325
Zn     1.070296    -2.292351     1.270244
Zn    -0.660344    -1.295343    -1.313643
Zn    -2.034996    -0.678923     0.067471
Zn    -0.215105    -0.094124     1.616580
Zn    -0.891306    -0.356123    -1.209051
Zn     1.844714     0.651705    -0.344527
Zn     0.938283    -0.479862    -0.455481
Zn     0.214757    -0.178427     0.215054
Zn     2.182181     0.448302     1.371292
Zn     1.983169    -2.180692     1.403561
Zn     0.754396    -2.100577    -1.413076
Zn    -2.270736    -1.402366     0.708405
Zn     1.687000    -2.620853     0.627806
Zn    -0.080864    -1.860444     1.818178
Zn     1.281017     1.116435    -1.006713
Zn    -1.044727     0.642653    -0.088018
Zn    -0.119004    -0.653971    -1.805479
Zn     2.692147    -0.317793     1.217190
Zn    -0.068486     0.840224     0.128694
Zn     0.302819     0.380321     0.996710
Zn     1.423901    -1.366586     1.167418
Zn     1.943982    -0.306251    -0.286043
Zn     2.367574    -0.782109     0.453376
Zn     1.745918    -2.261825    -0.254355
Zn    -1.360477    -0.989981    -0.616796
Zn     1.386737    -1.336302    -1.988264
Zn    -1.645999    -1.173631     1.467853
Zn     1.188849    -0.297559    -1.893318
Zn     0.448402     1.457927    -0.414444
Zn     2.069064    -1.287872    -0.408309
Zn     2.221404    -0.642476     2.049531
Zn    -0.599601    -1.401008    -0.108045
Zn     1.835200     1.050212     0.600984
Zn     0.442347    -0.011302    -2.246667
Zn    -1.040222    -1.924409     1.788211
Zn     0.957303    -3.000922    -1.804283
Zn    -0.466008    -2.320305    -1.456516
Zn     0.343310    -3.380245    -0.239365
Zn    -0.314122    -0.687201     0.775855
Zn     0.708593    -2.844370     0.466965
Zn     0.300427    -0.873786     1.822756
Zn    -1.090164     0.658874    -1.102829
Zn    -0.787297    -0.367277    -0.094633
Zn    -1.701388    -1.654339    -0.049696
Zn     1.607197    -0.766909    -1.145268
Zn    -0.232836     0.251536    -0.660359
Zn     0.103073    -2.080625     0.209068
Zn     1.529767     0.180653    -1.154504
Zn     1.548916    -2.256203    -2.007449
Zn     1.779555    -1.762338    -1.232760
Zn    -2.080443    -0.492932     1.009507
Zn     0.838344    -1.929282    -2.428634
Zn     0.474190    -0.039268    -1.236613
Zn     0.199000    -2.579513    -2.128493
Zn     0.832048     0.544400    -0.365843
Zn     1.232579    -0.807547     2.101312
Zn    -1.557037     0.022849     0.406738
Zn     0.463488    -1.483755     1.075098
Zn     0.819149    -1.692766     1.950799
Zn     1.743747    -0.400757     1.179827
Zn    -0.306053     0.368374    -1.721911
Zn     0.083568    -2.479665     1.201217
Zn     2.133576    -1.712930     0.542546
Zn     0.650475    -1.059124    -1.388091
Zn     2.394612    -1.215487     1.355461
Zn    -1.578636    -2.044711     0.954247
Zn    -0.960858    -2.392343     0.191230
Zn     0.969444    -3.472816    -1.007858
Zn     0.084115    -1.719839    -0.789991
Zn     1.114414    -1.493036    -0.561644
Zn     0.757533    -2.432083    -0.445028
Zn     1.245166     0.183260     0.416033
Zn     0.676163     0.027547     1.799398
Zn     0.193746    -2.942440    -1.200710
Zn     1.819535    -1.497580     2.036830
Zn     1.670310     0.093935     2.093197
Zn    -0.858366    -2.655200     1.123268
Zn     2.312959     0.136801     0.459584
Zn     0.693512    -0.478923     0.950809
Zn    -0.035092    -1.599429    -1.966820
Zn     0.631231    -0.929132    -2.371852
Zn     1.200425     0.592962     1.323604
Zn     1.531353    -2.782892    -1.107866
Zn    -1.254074    -0.951279     0.582356
Zn    -1.003887    -2.019715    -0.684393
Zn     0.274070     0.929612    -1.249242
Zn    -0.570577     0.253475     0.683048
Zn    -0.472082     1.206216    -0.649045
Zn     0.347311    -1.161268     0.113270
Zn    -1.554687    -0.031666    -0.544578
Zn     0.956178     0.619317    -1.787659
Zn    -0.226446    -2.980551     0.446471
Zn     1.419848    -0.954605     0.268969
Zn    -0.614449    -1.730234     0.946104
Zn    -0.319436    -2.668826    -0.517273
Zn     1.398240    -3.198572    -0.195972
