10

Li   -0.112679     1.154350    -0.194840
Li    0.455530    -0.141699     1.074987
Li   -1.076845    -0.472850    -0.000760
Li    0.772284     0.650565     0.318426
Li   -0.156612    -0.917109     0.505407
Li   -0.704034     0.331528    -0.717968
Li    0.749397    -0.438280     0.048302
Li   -0.145156    -0.631595    -0.579685
Li    0.417694     0.318313    -0.692983
Li   -0.199579     0.146776     0.239113
10

Li    -0.884383     0.127624     0.054053
Li     0.768105     0.756953    -0.413528
Li    -0.238408     0.733415    -0.758209
Li    -0.547376    -0.903062     0.062179
Li    -0.674164    -0.311805    -0.855709
Li    -0.011829     0.778854     0.351207
Li     0.181993    -0.174995    -0.258969
Li    -0.116448    -0.225524     0.817248
Li     0.563399    -0.975562     0.374917
Li     0.867785     0.150024     0.499434
