120

Zn    0.555880     1.691923    -1.680753
Zn    2.262192    -1.617530     0.233985
Zn   -0.749564    -0.653288    -1.443269
Zn   -0.060280     0.686866     1.535730
Zn    0.418831     0.848400    -2.188512
Zn    2.565665    -1.173871    -0.616133
Zn   -0.837746    -0.842101     0.558913
Zn   -0.359985     0.941481     0.655674
Zn    0.661624     1.179281     1.095589
Zn    1.432466     1.883516    -1.175312
Zn   -0.492407    -0.850226     1.891444
Zn    1.640945    -0.198217     1.506229
Zn    2.873309    -0.214618    -0.638323
Zn    2.580245     0.792778    -0.556230
Zn    2.182798     0.918440     0.345639
Zn    0.730013    -0.155381    -2.271353
Zn    0.248935     0.430983    -0.359205
Zn   -1.274182    -0.489594     1.421464
Zn   -0.758435     0.132800     1.929387
Zn    1.673386    -0.938847    -0.114118
Zn   -1.530403    -0.018634    -1.410894
Zn    1.353835     1.504917     0.488435
Zn    0.656584    -0.632054    -3.126599
Zn    1.335545     1.079745    -1.754860
Zn    1.606491    -1.433904    -1.020075
Zn   -0.191413    -1.816320     1.770552
Zn    1.321887    -1.160361     1.569894
Zn    2.023245     0.046465    -0.131589
Zn    0.143014    -0.909674    -1.871223
Zn   -0.048895     0.964562    -1.228306
Zn    0.445065     0.354956     0.648076
Zn    2.546138     0.303118    -1.414400
Zn    0.124880    -1.360120    -2.732387
Zn    1.809845     1.424236    -0.404412
Zn   -0.564940     1.059045    -0.301396
Zn   -0.215282    -1.875679    -1.931663
Zn   -1.071218    -1.685658    -0.564223
Zn   -1.575731    -0.852110    -1.952779
Zn    1.278985     0.649186    -2.653073
Zn    1.344592    -1.905091    -0.101497
Zn   -0.335712    -2.102194     0.850319
Zn    1.617713     0.068642    -1.851426
Zn   -0.737378    -0.732485    -0.427917
Zn   -0.570015     0.098788     0.167892
Zn    0.714345    -1.659049    -1.442106
Zn   -0.981071    -1.497155     1.339357
Zn    2.473706    -0.173480    -2.267008
Zn   -0.745295    -1.127818    -2.350107
Zn    1.048883    -0.426976     2.199817
Zn   -0.498115    -2.314128    -1.071781
Zn   -1.645622    -1.027624    -0.048485
Zn    2.458196    -1.642396    -1.462641
Zn    0.631724     2.389751    -1.043241
Zn    1.497671     0.668583     0.999212
Zn    1.944251    -0.455109    -1.019146
Zn   -0.182503    -1.407204    -0.992048
Zn    0.521054    -2.087063     0.408876
Zn    0.719257    -1.185733    -0.490952
Zn    2.195214     1.260001    -1.324840
Zn   -0.297995    -0.183324     1.124690
Zn    2.643689    -0.665857     0.216534
Zn    1.530108    -1.806103     0.852308
Zn   -0.150716     0.100014    -1.788942
Zn   -0.126884    -1.424460     0.043762
Zn   -0.971103     0.722429    -1.719941
Zn    0.843252     1.189706    -0.806275
Zn    0.888196    -1.168291     0.523946
Zn   -0.196889    -0.389119    -2.711991
Zn    2.193793     0.788713    -2.188598
Zn    0.737561     0.301002    -1.322788
Zn   -0.375796     1.427178    -2.030712
Zn   -0.846179     1.523680    -1.145380
Zn    0.676759    -1.846684     1.329269
Zn   -1.406471     0.808318    -0.817330
Zn    2.057295    -2.510601    -1.442573
Zn    1.246836    -2.398429    -0.959274
Zn    1.593461    -1.874726    -1.971402
Zn    1.203078     0.677820     0.017625
Zn    0.342425    -2.562108    -1.478334
Zn    0.257722    -0.486992     0.111941
Zn    0.155218    -0.434555    -0.897452
Zn    1.301410    -0.217971     0.536534
Zn   -1.069512    -1.602930    -1.539999
Zn   -1.608046    -0.938542    -1.007496
Zn   -1.038359    -0.120423    -2.268013
Zn   -1.072752     0.431356     1.056779
Zn    2.932841     0.285686     0.180004
Zn    0.861161     0.423367     1.698953
Zn    1.020929    -0.673066    -1.402166
Zn    0.376671     0.330139    -3.048189
Zn   -0.228145     2.172752    -1.450002
Zn    1.650520     0.554579    -0.936866
Zn   -1.138637    -1.781305     0.405941
Zn    1.960010    -0.920690     0.869701
Zn    2.192976    -2.095098    -0.602929
Zn    2.289962     0.045170     0.836460
Zn    0.368987    -2.151297    -0.563008
Zn    0.649934    -2.098734    -2.318041
Zn    1.004372     1.990690    -0.269976
Zn   -1.599363    -0.197577     0.535000
Zn    0.410666     1.305251     0.160115
Zn   -0.652811     0.209463    -0.860305
Zn    0.437360    -1.139196     2.010347
Zn    1.005874    -1.169538    -2.352955
Zn    0.674752    -0.460402     1.274401
Zn    1.606217    -0.475664    -2.744738
Zn    0.027774     1.792056    -0.617789
Zn   -0.005896    -1.187405     1.042867
Zn    1.035654    -0.212366    -0.480961
Zn    1.197425    -2.727600    -1.849335
Zn    2.763708    -0.694179    -1.484087
Zn   -0.473402    -2.311714    -0.095453
Zn    1.922588    -0.938194    -1.919303
Zn   -1.533556    -0.096386    -0.434712
Zn    1.221404     0.080163    -3.407580
Zn    2.088382     0.298955    -2.997456
Zn   -1.341885     0.673670     0.147827
Zn    0.144249    -0.131635     2.092454
Zn   -0.443614     0.594059    -2.573140
Zn   -1.737958    -1.130271     0.881499
120

Zn     0.356640     0.465385     2.767343
Zn     0.457080    -1.267137    -0.709854
Zn    -1.208940     0.184760    -1.736340
Zn    -2.300317     1.742780     0.419514
Zn     1.717029     0.357344     0.292656
Zn    -2.766157    -0.434631     1.167325
Zn    -1.726953    -1.688149     0.721757
Zn     1.032828     0.491920     1.999607
Zn    -0.551122    -1.264069    -0.743972
Zn    -1.715697     1.033722     2.054116
Zn    -1.095436     1.144921    -1.636928
Zn    -2.678128    -0.079752     0.291492
Zn    -0.042288    -1.019874     1.177039
Zn    -1.601212    -1.122885    -0.849338
Zn    -1.579566     1.522282     1.026883
Zn    -1.900238     1.151114    -0.361034
Zn     1.580766     0.424832     1.202108
Zn     1.543934     1.122672    -0.358834
Zn     0.451811    -0.317743     1.606151
Zn     1.133395    -0.280239     0.737993
Zn    -2.258027     0.303767     1.662366
Zn    -1.189215     1.657862    -0.859761
Zn    -2.474631    -0.977747     0.459271
Zn    -1.067426     0.639257    -0.714595
Zn    -2.047789    -1.162129     1.362006
Zn     1.353451     1.231204     0.676813
Zn    -0.570226    -0.153530     1.407929
Zn    -0.740776    -1.061552     2.048405
Zn    -0.373187     0.020392    -1.242570
Zn     0.535445    -1.067652     0.249922
Zn    -1.543948    -0.840256     0.178916
Zn     0.292304    -1.909464     0.804917
Zn     0.844903     2.051112     0.939755
Zn    -0.595535     1.643670     0.784427
Zn     1.493574     0.287396    -0.658230
Zn     0.113593    -0.209850     0.567859
Zn     0.625483     0.561411     1.099464
Zn    -1.079165    -0.513233     2.807875
Zn     0.096587     2.303090     0.375694
Zn    -1.247637     0.480175     1.239634
Zn     0.581431     0.353307    -0.979584
Zn     0.275935    -1.141147     2.191419
Zn    -2.511248     2.137088     1.111104
Zn     0.934195    -1.148185     1.159713
Zn    -0.039808     2.416956     1.275497
Zn    -0.673753    -1.846040     0.746946
Zn    -1.462302    -0.356679     1.850402
Zn     0.705818     2.153527     1.939317
Zn    -0.502516    -0.922735     0.219480
Zn    -1.086665    -0.955345     1.090821
Zn    -0.720932     1.223982     1.687676
Zn     0.192004     1.408121     1.447024
Zn    -1.672567     0.129415    -0.124807
Zn     0.555677     1.247575     2.409945
Zn     0.553345     1.308531    -0.600945
Zn    -3.118206     1.493970     0.728597
Zn     0.308410     2.298874    -0.612711
Zn    -0.914347     0.399867     2.193150
Zn    -2.447475     1.247659     1.477473
Zn    -1.996673    -0.581169     2.950275
Zn    -2.071451     0.721121     0.646295
Zn    -0.252216     1.077395    -1.127194
Zn    -0.592598     0.310864     3.138866
Zn    -0.364544     0.634424     0.832916
Zn     1.255841     1.922204    -0.899915
Zn    -0.385055     1.971045    -1.144027
Zn    -1.875173    -0.292877     0.887878
Zn    -0.116294    -0.349701     2.441568
Zn     0.016749    -0.829423    -1.473539
Zn    -1.086714    -1.771395    -0.083834
Zn    -2.439804    -0.588221     2.056447
Zn     1.291075     0.197628    -1.631269
Zn     1.469151    -0.338197     1.646670
Zn    -1.335553     1.008804     2.951450
Zn    -0.750107     2.561781     0.586824
Zn    -0.191379     1.522284    -1.996622
Zn     0.486304     0.899414    -1.827106
Zn    -2.454712     0.316838    -0.674929
Zn    -0.908075    -0.358321    -0.552526
Zn    -2.108990    -1.548304    -0.147803
Zn     1.179993     1.330752     1.582591
Zn     0.650367    -1.872523     1.655495
Zn    -1.451872     0.130138     3.401517
Zn    -1.082640     0.872850     0.289254
Zn     0.782773    -0.382618     2.510952
Zn    -1.301664     1.919788     0.129684
Zn     0.743109     0.475257     0.043703
Zn    -0.510606    -0.380707    -2.181983
Zn    -0.270008     0.533746    -0.118066
Zn    -0.260004     1.983794     2.163600
Zn    -0.322433    -1.862464     1.690340
Zn    -1.797984    -0.233180    -1.075328
Zn    -1.647820     2.452206     0.880715
Zn    -0.027206     0.559579     1.947766
Zn     0.358863     1.284458     0.399212
Zn     1.155406    -1.203456     2.141091
Zn    -1.251888    -1.775246     1.606378
Zn    -1.950258     0.267489     2.542916
Zn    -0.942522     2.222763     1.499828
Zn    -0.062071    -1.793532    -0.005959
Zn    -2.953344     0.588584     0.944441
Zn    -1.805766     0.743764    -1.233195
Zn    -1.706926    -1.249092     2.318312
Zn     1.019521     1.931224     0.025884
Zn    -1.878706     1.991447     1.836551
Zn    -0.397356     1.449721    -0.285965
Zn     0.462438     1.793926    -1.476874
Zn     0.406182    -0.128994    -1.958613
Zn    -0.876656    -0.063387     0.455842
Zn    -0.360331     1.182399     2.667629
Zn    -1.131551     1.803428     2.391994
Zn     1.082683    -0.480449    -0.285641
Zn    -0.591478     2.449245    -0.320173
Zn    -2.834676     0.896411     0.049325
Zn     1.246709     1.054762    -1.220185
Zn     0.131158    -0.419677    -0.465033
Zn     0.870463    -0.527799    -1.161622
Zn    -0.363386     0.604790    -2.146254
Zn    -2.325682    -0.662141    -0.447102
Zn    -1.022464    -0.749630    -1.505208
