138

Co    1.528990     1.487850    -1.253510
Co    1.345410     0.079922     2.105330
Co    1.367090     0.747259    -1.913490
Co   -1.019650    -0.705483     1.095510
Co    0.478878     0.364019     0.733567
Co    0.474475    -1.660590    -0.650946
Co   -0.850432     0.036421     1.742050
Co    0.950439     0.751524    -1.041640
Co   -1.300670     0.841384    -0.581472
Co    1.185760     0.002138    -2.540210
Co   -0.525893    -0.601716     2.392930
Co   -0.093097    -2.430620    -0.456821
Co   -1.668680     1.085510     1.280930
Co    0.814653    -2.329110    -0.026244
Co   -0.024911     2.081070     1.438610
Co    1.150600    -0.898620     2.020370
Co   -0.671200    -0.680381    -2.282530
Co   -0.301050    -1.177890    -1.037080
Co   -1.585420     1.723940    -0.242669
Co   -2.171630     1.250190     0.424579
Co    2.037110     0.935629     0.522317
Co    0.820243     1.992050     0.898895
Co    0.528351     0.744816    -0.174707
Co   -0.288973     0.861023     0.364566
Co   -0.621713     1.510440    -0.263912
Co    0.230766     1.223380     1.089890
Co   -0.952386     2.151520    -0.898291
Co   -1.496030    -0.140258    -0.666553
Co   -0.882452     2.369860     0.076729
Co    0.216778    -0.811218    -0.308561
Co    1.566100    -1.433800     1.270650
Co    0.880664    -0.156973     0.001901
Co    0.633515     1.408320    -1.706750
Co    0.113602    -1.206560    -1.933380
Co    1.426470     0.186144     0.720956
Co   -1.494740     1.917190     0.741151
Co    0.415420    -0.262527     2.281940
Co    0.045570    -1.987410     1.503680
Co   -1.546610    -0.528090     0.258679
Co    0.602133     0.725041     2.335620
Co   -0.351859    -1.566280    -0.110642
Co   -0.047195     2.284160    -0.478682
Co   -0.358031     0.645843    -0.595517
Co   -1.661440    -1.412650    -1.207320
Co    0.263196    -0.340652    -2.429770
Co    1.313560    -0.168897    -0.862946
Co   -0.702315    -1.363870     1.759290
Co   -1.597930    -1.442850     1.306800
Co    0.281211     1.611150     0.164647
Co    0.896982    -1.699050    -1.530940
Co   -0.483637     0.307385    -2.229280
Co   -0.438249     0.029752     0.874535
Co    0.025859     2.471130     0.507831
Co    2.260750    -0.355047    -0.893186
Co   -1.799220     0.221806     1.781230
Co   -1.434280    -0.703079     1.961930
Co    0.817716    -0.264358     1.380310
Co    0.856070     2.353140    -0.039946
Co    1.957760     0.532836     1.441600
Co   -0.687886     1.283660    -1.234090
Co    1.230730    -0.796760     0.635459
Co   -2.438730     0.042353    -0.644825
Co   -0.964741     1.738720     1.582930
Co   -0.549967    -0.317846    -0.679027
Co   -1.990350    -0.530850     1.140640
Co   -1.230450     1.060430     0.396544
Co   -2.242240     1.029870    -0.559239
Co   -0.279996     1.286490    -2.112160
Co    1.731620    -0.176827    -1.733520
Co    0.785481     2.132580    -1.023810
Co    0.754999     1.576500     1.813270
Co   -0.181817     1.251280     1.986450
Co   -2.127970    -1.264440     0.465067
Co    1.106940     1.483850    -0.382262
Co   -0.887064     0.309727    -1.327040
Co   -0.824065    -1.531440    -1.760440
Co    1.516660    -1.679010     0.294913
Co    1.787020    -0.457282     1.376760
Co    0.883521    -2.106460     0.951480
Co    0.365419     0.016512    -0.816343
Co    0.459453     0.646260    -2.344430
Co   -2.026620    -0.487648    -1.388150
Co   -2.489640    -0.347736     0.285961
Co   -1.855460     0.502196    -1.324430
Co    1.063550     1.104850     0.540411
Co   -1.635340     1.478540    -1.217720
Co   -1.382460     0.213958     0.915852
Co    1.426250    -1.877260    -0.690353
Co    1.006590     0.712999     1.456890
Co    0.618108    -1.238230     1.287600
Co    0.774332     0.009171    -1.675290
Co   -0.703516     0.883018     1.233390
Co    0.634387    -0.838208    -1.180570
Co    1.592700     1.457260     1.260430
Co    2.425270     0.390918    -0.233058
Co    0.210651    -1.241030     2.164950
Co    0.211058     1.391920    -0.813426
Co    1.921450     0.575090    -1.087890
Co    0.286935    -0.599638     0.650023
Co   -0.114601     2.032260    -1.451010
Co    1.049650    -0.848938    -2.052450
Co    1.813700    -0.340823    -0.024682
Co    1.643030     1.843790     0.338063
Co    2.178120    -0.985496     0.611308
Co   -0.021586    -2.239490     0.531092
Co   -0.116675    -0.604713     1.523980
Co    2.058770     1.309500    -0.412218
Co   -1.711870    -1.799240    -0.284943
Co   -1.897860     0.389100     0.078686
Co    2.108050    -1.205360    -0.371520
Co   -2.324560     0.398751     0.946974
Co    1.599900    -1.040760    -1.228150
Co   -1.116300     0.894776     2.100630
Co   -1.414000    -0.034912    -2.052540
Co   -0.888617    -1.947580    -0.845928
Co   -1.076300    -0.667658    -1.403350
Co   -0.955738     0.203978     0.052733
Co    0.078765     0.376893     1.609200
Co   -0.548297     1.718980     0.709841
Co   -1.176780    -1.438490     0.435878
Co   -0.925643    -2.308530     0.093284
Co   -0.280764    -1.346740     0.866638
Co   -0.042093    -2.040620    -1.386900
Co   -1.219220     0.943660    -1.967660
Co   -0.854561    -2.087860     1.076590
Co    2.753150    -0.525694    -0.051071
Co    0.552370    -1.465250     0.318247
Co   -0.149152    -0.332102    -1.555930
Co    0.733573    -2.515930    -0.995443
Co    2.374720     0.001269     0.697141
Co   -0.037560     0.024402     0.028805
Co   -0.329322     0.385717     2.478680
Co   -2.105750    -0.891367    -0.469496
Co    1.476920     0.574271    -0.205576
Co   -0.599471    -0.698596     0.229256
Co    0.046328     0.650918    -1.470820
Co    1.161500    -1.015690    -0.343462
Co   -1.133040    -1.059800    -0.486869
138

Co     1.305614     0.163882    -0.941081
Co    -1.482182     0.493215     0.252124
Co     0.257832    -1.402676    -0.854315
Co    -0.890847    -2.223451    -0.909948
Co    -0.480653     0.281469    -0.732301
Co    -2.215795    -1.031033    -0.560939
Co     2.440233    -0.357877    -0.311394
Co    -0.526500    -1.686093     0.671951
Co     1.134809    -1.051527     0.482438
Co    -0.277245    -0.870355     0.277086
Co    -1.644931     2.177211     0.596405
Co     1.235161     0.979526    -0.436297
Co    -0.659473     0.644376    -2.330632
Co    -0.929058    -0.180357     0.011096
Co    -0.902568    -1.752965     1.551335
Co     0.344248     1.287281     2.086382
Co     0.968080     2.171356     0.863205
Co     1.325175    -0.788441    -1.962513
Co     0.805544    -1.584356     1.721374
Co     2.051496    -0.468920     1.305295
Co     0.938088     0.125553    -0.063646
Co     0.635588     0.842994    -1.305647
Co     0.254577    -1.240144     1.053536
Co     0.745674    -0.009118    -1.811257
Co     1.259535     0.815233     0.555938
Co     0.128122     2.012149     1.409637
Co    -0.277169    -0.329281     2.480133
Co     1.952297    -0.659406    -1.229402
Co    -1.440503    -1.929803     0.712893
Co    -0.082181    -2.040893    -1.490522
Co    -0.115888     0.287782    -1.592067
Co    -2.248754    -0.399945     0.933771
Co     1.566150     1.631798     0.140746
Co    -0.864500    -0.301278    -1.370223
Co    -1.105787     0.630062    -1.429902
Co    -0.323518    -1.318050    -2.115744
Co     0.020282    -0.058243    -0.045907
Co     0.677155    -0.663118     2.293371
Co    -1.146671    -1.016847     0.381379
Co     0.010357    -2.043436     1.388765
Co     0.559034     1.512438     0.192757
Co     1.537259    -0.168329     0.609818
Co    -0.440532    -0.372875    -2.308222
Co     1.502770     1.805047    -0.795654
Co    -0.652186    -1.371904    -1.282928
Co    -0.597138    -0.874887     1.231308
Co    -1.829481    -0.561031    -1.316917
Co     1.531609    -1.527467    -1.309545
Co     0.412374    -0.697475    -2.368909
Co    -1.262143    -0.877349    -0.550987
Co    -1.437742    -0.049492    -2.064469
Co     0.248586     0.233129    -2.547996
Co    -0.906139     2.298335    -0.029784
Co    -0.788351     1.431405    -1.853397
Co    -1.110157     1.086383    -0.525959
Co     0.104946    -2.427494     0.530123
Co     1.009140    -0.766618    -1.136292
Co    -0.938948     0.734157     1.027574
Co     0.709148     1.290903     1.150353
Co     0.548996     1.661748    -0.817749
Co     1.743021     0.080779    -1.854651
Co     2.238969     0.298792    -0.997900
Co     1.665218    -1.403761     1.150929
Co     1.036708     1.906749     1.759804
Co    -1.295282    -0.243958     0.837475
Co     0.853573    -1.988980     0.902294
Co     0.007304     0.634528     1.417438
Co     1.594855     1.046484    -1.330241
Co    -0.594598     1.365130     1.727547
Co     0.385774    -0.007218    -0.915610
Co     1.842516     0.443779     1.255246
Co    -1.668956    -0.140211     1.749679
Co     1.159864    -1.502904    -0.413766
Co    -0.552536     0.710659     0.157402
Co     1.427384    -0.023153     1.994001
Co     1.693056    -1.851171     0.318141
Co    -0.878896     1.955194    -0.942073
Co     1.919340     0.369073    -0.154136
Co    -1.157366    -0.033311     2.572115
Co     0.128168     1.190744    -1.994230
Co     2.049891    -1.277625    -0.485081
Co     0.872703     2.321931    -0.188954
Co     1.668441     1.473657     1.164383
Co    -1.486653     1.504954     1.238094
Co     0.948627     1.645685    -1.630752
Co    -0.300457    -0.630082    -0.629917
Co     0.221345     0.846616    -0.445868
Co     1.520607    -0.564634    -0.240786
Co     0.373982    -1.566522     0.094291
Co     0.930465     0.328005     1.338752
Co     0.622249    -1.448896    -1.756563
Co    -1.615385    -1.554200    -1.175633
Co     0.049503    -0.682765    -1.536372
Co     1.082977     0.811611    -2.147492
Co    -0.316771     1.570434    -0.252683
Co    -0.050990    -2.297067    -0.462431
Co    -1.902530     0.528979     1.060884
Co    -1.456721     0.161342    -0.671154
Co     0.505104    -0.336202     0.666643
Co    -1.046352    -0.838687     2.110990
Co    -0.378708    -0.031294     0.851899
Co    -0.033404     2.424832    -0.538426
Co    -0.077495     1.982700    -1.511741
Co     0.913609    -2.406732    -0.097021
Co     0.330797     0.597018     0.528287
Co     2.091639     1.216078    -0.484521
Co    -1.833667    -0.440828     0.071797
Co    -2.454494    -0.105111    -0.674442
Co     0.536576    -0.747422    -0.195953
Co     1.290619     0.913767     1.936148
Co    -1.693761     1.784302    -0.350629
Co    -0.318754     1.112191    -1.158961
Co    -1.157417     1.396210     0.320091
Co     0.843422    -2.127267    -1.061287
Co    -1.336609     0.720433     1.895379
Co     0.147588    -0.375454     1.582240
Co    -2.102822     1.272232     0.383632
Co     1.048328    -0.709391     1.420719
Co    -0.191769     1.383666     0.799157
Co    -0.380190     0.654379     2.313576
Co    -1.495449    -1.780079    -0.243653
Co    -1.604137     1.332047    -1.314863
Co    -0.855526    -2.416039     0.076654
Co    -2.454230     0.390321     0.311456
Co    -2.011133     0.466189    -1.440002
Co     2.228021     0.978127     0.446460
Co     2.129265    -0.899169     0.434260
Co    -2.080703    -1.223478     0.403321
Co    -1.245306    -1.004827    -1.950286
Co    -0.822983     2.089544     0.933832
Co    -1.617510    -1.110906     1.241752
Co    -0.768600     0.023274     1.663794
Co     2.439530    -0.022889     0.562091
Co    -0.132817    -1.192244     1.958154
Co     0.509712     0.339583     2.164375
Co    -2.102473     0.835968    -0.515695
Co    -0.581614    -1.492342    -0.257926
Co     0.013522     2.221085     0.462366
