30

Cd   -1.504508     0.919610     0.266253
Cd   -0.721802     1.080247    -1.438019
Cd    0.451195     0.629684    -0.570971
Cd   -0.934329    -0.372912     1.024975
Cd   -0.395830    -0.722599    -0.558945
Cd    0.000691    -0.091469     0.935097
Cd   -0.537226     0.296540    -0.699899
Cd   -1.686286    -0.004930     0.560754
Cd    0.325438     0.704857     0.407814
Cd    0.063411     0.537898    -1.482545
Cd    0.080585     1.401283    -1.011657
Cd   -1.555925     0.185110    -0.397551
Cd   -1.184701    -0.625130     0.025901
Cd    0.477776     1.522295    -0.146466
Cd    0.039444     1.600648     0.693867
Cd   -0.899468     1.436188     0.808465
Cd   -0.272412     0.793792     1.158896
Cd   -1.240787    -0.541230    -0.959531
Cd   -0.744058     1.864721    -0.847572
Cd   -0.514344    -0.250268    -1.500914
Cd   -0.341135    -0.814144     0.425886
Cd   -1.333425     1.093499    -0.692903
Cd   -0.699305     0.245983     0.315834
Cd   -1.293694     0.323685    -1.343619
Cd   -1.198742     0.560717     1.142307
Cd    0.223793    -0.167906    -0.027917
Cd   -0.284406     2.105795    -0.047446
Cd   -1.205088     1.818354    -0.017069
Cd   -0.458152     1.151075    -0.122691
Cd    0.305744    -0.243876    -1.007187
30

Cd     1.348873    -1.064275    -0.131329
Cd    -1.344072    -1.372263     0.273534
Cd     0.206137    -2.063887     0.647820
Cd     0.278276    -0.375220     0.893951
Cd     0.834716    -0.211759     0.067904
Cd    -0.534473    -1.813283    -0.083051
Cd    -0.043446     0.290801     0.169981
Cd     0.414704    -0.823732    -1.511941
Cd     0.387453    -1.145978     0.042811
Cd     0.168358    -1.297233     1.086191
Cd    -0.034619    -0.560155    -0.648318
Cd    -0.474523    -0.806736    -1.499511
Cd    -0.514721    -0.735016     0.269902
Cd     0.508022     0.330013    -0.727410
Cd     1.073344    -0.468070    -0.870488
Cd     0.387257    -2.113622    -0.302417
Cd     0.887762    -1.449036    -0.858638
Cd    -0.636683     0.095525     0.855858
Cd    -1.333814    -0.490712     0.730897
Cd    -1.589385    -0.550581    -0.241358
Cd    -0.927552    -1.121170    -0.694868
Cd    -0.070516    -1.506461    -0.924734
Cd    -0.597890    -0.695307     1.225403
Cd     1.009995    -1.805684     0.376310
Cd    -0.999474    -0.161218    -0.924801
Cd    -0.952390     0.169243    -0.044640
Cd    -0.676368    -1.603070     0.882811
Cd     1.041700    -0.941908     0.739748
Cd    -0.329361     0.506644    -0.694787
Cd    -0.089795    -0.022962    -1.445594
