37

Ar     -0.702469      0.706027      1.470303
Ar      0.285086      0.858944     -1.948536
Ar      1.506305     -0.369553      0.550064
Ar     -0.444030      0.102148     -2.337695
Ar      1.024492     -1.374542      0.664082
Ar     -2.069093     -0.193839     -0.827228
Ar     -1.169403     -1.095257      1.013168
Ar      0.133874      1.284644      0.192316
Ar     -0.417785     -1.693038     -1.009356
Ar     -0.829120      0.978469     -1.750939
Ar     -1.643156      0.831505     -0.985050
Ar      0.661479     -0.520979      1.296025
Ar      0.525363     -0.251123     -1.892421
Ar      1.271909     -1.000530     -0.366812
Ar     -1.873418      0.452196      0.068358
Ar     -0.441320     -0.378146      1.469579
Ar     -1.420744     -0.003277      0.995625
Ar      0.504285      0.971933     -0.858329
Ar      0.973805      0.500178      0.093934
Ar      0.544976     -1.150509     -1.214200
Ar     -1.259748     -0.045387     -1.586220
Ar      0.306160     -1.537487     -0.174919
Ar     -0.429020     -0.798268     -1.676738
Ar     -0.072158     -1.238250      0.841322
Ar     -1.623908     -0.645614      0.094976
Ar     -1.245604     -0.944986     -0.919103
Ar     -0.609646      1.099270     -0.667634
Ar     -0.794630     -1.394292      0.002814
Ar      0.138756      0.347993      0.847058
Ar     -0.841231      0.721508      0.373036
Ar      0.743373     -0.132903     -0.811892
Ar     -0.038650      0.308234     -0.212084
Ar     -0.237820      0.204782     -1.252527
Ar      0.480573     -0.517938      0.215498
Ar     -1.036433      0.059494     -0.513375
Ar     -0.595460     -0.378200      0.392015
Ar     -0.224814     -0.678777     -0.605143
37

Ar     -0.389945     -0.938816     -0.494463
Ar      0.552494      1.651802     -0.503586
Ar     -1.105494     -0.439434     -1.288634
Ar     -1.066695     -0.466719      0.285665
Ar      0.339629      0.648676     -0.095686
Ar     -1.560607     -0.522667      1.299170
Ar     -1.241706      1.335427      0.819561
Ar      0.641498     -1.100436     -0.088465
Ar      0.029279     -0.357604      0.232694
Ar     -1.268383      0.631376     -1.286013
Ar     -1.634695     -0.026575     -0.534575
Ar     -2.078198     -0.583398      0.324518
Ar     -0.363431      1.560694      0.156254
Ar     -0.466084     -0.320606      1.185578
Ar     -1.720894      0.411172      0.540091
Ar     -1.479850     -1.088787     -0.498003
Ar      0.664787      0.803054     -1.111747
Ar     -0.152644      0.254900     -1.556223
Ar     -0.348343      1.143939     -0.894872
Ar      0.720449      1.377882      0.607820
Ar      0.168340     -0.742365      1.971588
Ar      1.109682     -0.068036      0.112415
Ar     -0.567198      0.182001     -0.487012
Ar      0.622155     -0.766336      0.962338
Ar     -0.085644     -0.861603     -1.556415
Ar      0.483475      0.390639      0.942756
Ar      0.425496     -0.266298     -0.751898
Ar      1.371388      0.952923     -0.246521
Ar     -0.037776      0.352226      1.921988
Ar     -0.810723     -1.318745      1.585866
Ar     -0.266436     -1.232037      0.518489
Ar     -0.600313      0.472116      0.499644
Ar     -1.179085      1.025417     -0.280746
Ar     -0.921385     -0.336544      2.130450
Ar     -1.416491     -1.378041      0.610795
Ar     -0.187843      1.237138      1.240546
Ar     -1.090580      0.559844      1.521725
