412

Li    0.321394    -0.257207     0.567316
Li    0.317289    -0.254270     1.590418
Li    0.601788    -1.129824     1.020991
Li   -0.422235    -0.794492     1.022201
Li   -0.420759     0.282208     1.023433
Li    0.602850     0.616061     1.022284
Li    1.237741    -0.254612     1.021423
Li    0.037332    -1.127598     0.107132
Li   -0.592297    -0.254935     0.106730
Li    0.037055     0.611189     0.106836
Li    1.061542     0.281893     0.107562
Li    1.061135    -0.794438     0.105564
Li    0.318503    -0.254997    -0.456023
Li    0.311816    -0.250370     2.637017
Li    0.887780     1.512778     1.482463
Li    2.175126    -0.251021     1.484296
Li    0.887712    -2.022688     1.483442
Li   -1.187119    -1.342283     1.482417
Li   -1.182327     0.835752     1.484447
Li    1.814960     0.834839    -0.366777
Li    1.815301    -1.342019    -0.372642
Li   -0.256039    -2.014899    -0.368064
Li   -1.524727    -0.249999    -0.367236
Li   -0.255504     1.496587    -0.367218
Li    0.311985    -0.249918    -1.502101
Li    0.604258     0.642213     2.078916
Li    1.254816    -0.250813     2.078442
Li    0.603420    -1.147246     2.078055
Li   -0.446733    -0.804044     2.078842
Li   -0.444996     0.299812     2.080272
Li    1.547004     0.642003     1.496307
Li    1.546272    -1.147591     1.495358
Li   -0.155436    -1.700763     1.495819
Li   -1.200471    -0.252865     1.497034
Li   -0.152536     1.189088     1.497013
Li    1.365916     1.188867     0.558911
Li    0.316506     1.520953     0.557910
Li    2.017247     0.298974     0.559000
Li    2.016874    -0.804303     0.556450
Li    1.365499    -1.700669     0.556063
Li    0.315991    -2.042255     0.557887
Li   -0.731221    -1.696923     0.558569
Li   -1.371309    -0.801346     0.557933
Li   -1.370054     0.297128     0.558315
Li   -0.728014     1.180606     0.558343
Li    1.834374    -0.252945    -0.378022
Li    0.785136    -1.696765    -0.378352
Li   -0.902914    -1.140538    -0.375961
Li   -0.903980     0.633340    -0.375804
Li    0.783350     1.180092    -0.375606
Li    1.070327     0.296887    -0.949505
Li    1.070956    -0.801065    -0.950988
Li    0.026201    -1.140499    -0.949997
Li   -0.616419    -0.251654    -0.950871
Li    0.026340     0.633193    -0.950767
Li    0.307289    -0.247184     3.707930
Li    1.174331     2.432384     1.945262
Li    3.131042    -0.248057     1.957390
Li    1.179987    -2.932898     1.956202
Li   -1.973301    -1.898714     1.945292
Li   -1.962623     1.402921     1.946672
Li    2.578303     1.400410    -0.855536
Li    2.581290    -1.898181    -0.868623
Li   -0.559399    -2.915372    -0.859404
Li   -2.473940    -0.244418    -0.850544
Li   -0.553899     2.397676    -0.850643
Li    0.304512    -0.244165    -2.567302
Li    0.602050     0.657257     3.145302
Li    1.260513    -0.247123     3.145981
Li    0.601566    -1.153902     3.145637
Li   -0.461808    -0.806722     3.145229
Li   -0.460172     0.310771     3.146176
Li    0.893014     1.556122     2.556277
Li    2.207142    -0.247390     2.560659
Li    0.894131    -2.054277     2.559891
Li   -1.226786    -1.360855     2.556241
Li   -1.221876     0.864497     2.557557
Li    1.563884     0.664124     2.577297
Li    1.563999    -1.160540     2.577904
Li   -0.171329    -1.723750     2.576851
Li   -1.237994    -0.248274     2.576378
Li   -0.168558     1.223352     2.576356
Li    1.845860     1.555877     1.967622
Li    2.501808    -1.154347     1.971190
Li    0.125345    -2.613464     1.970399
Li   -1.988167    -0.800394     1.965919
Li   -0.924852     1.763838     1.966080
Li    2.501614     0.656622     1.971283
Li    1.847672    -2.054463     1.970800
Li   -0.932306    -2.267087     1.967223
Li   -1.985534     0.304384     1.966163
Li    0.125116     2.107431     1.965740
Li    2.338282     1.222590     1.027757
Li    2.339503    -1.723741     1.025692
Li   -0.463093    -2.632571     1.026915
Li   -2.170352    -0.247559     1.022217
Li   -0.456769     2.110019     1.022055
Li    1.661931     2.107087     1.016355
Li    0.599691     2.437397     1.014599
Li    2.977139     0.309529     1.022498
Li    2.977076    -0.807149     1.020209
Li    1.664582    -2.613296     1.019452
Li    0.602210    -2.958621     1.020893
Li   -1.513196    -2.261868     1.016229
Li   -2.155607    -1.353273     1.014938
Li   -2.150283     0.858173     1.015185
Li   -1.502412     1.749593     1.015186
Li    2.131573     1.763524     0.077818
Li    0.020853     2.427302     0.078368
Li    2.792156     0.862614     0.078965
Li    2.793354    -1.360777     0.072537
Li    2.134982    -2.266729     0.072202
Li    0.018780    -2.953473     0.076469
Li   -1.040959    -2.602253     0.077407
Li   -2.324759    -0.799770     0.078659
Li   -2.322918     0.307594     0.078362
Li   -1.032100     2.083713     0.078338
Li    1.078220     2.109555     0.073365
Li    2.816284    -0.248787     0.071696
Li    1.084238    -2.632378     0.070886
Li   -1.695980    -1.707350     0.073614
Li   -1.693347     1.207131     0.074176
Li    2.605699     0.304241    -0.870414
Li    1.544575    -2.261380    -0.873013
Li   -1.210324    -2.034494    -0.864517
Li   -1.852703     0.646604    -0.861854
Li    0.490730     2.083122    -0.863019
Li    2.606448    -0.800063    -0.872650
Li    0.493764    -2.602019    -0.870822
Li   -1.852247    -1.140905    -0.862904
Li   -1.209624     1.531611    -0.861819
Li    1.538530     1.747836    -0.863876
Li    1.067549     0.307897    -2.016546
Li    1.069173    -0.799093    -2.018137
Li    0.015633    -1.140728    -2.016926
Li   -0.632054    -0.245905    -2.016840
Li    0.015924     0.646496    -2.016803
Li    1.827689     0.857904    -1.442148
Li    1.831028    -1.352419    -1.447983
Li   -0.272831    -2.034403    -1.443700
Li   -1.562697    -0.245903    -1.441804
Li   -0.271607     1.531403    -1.441798
Li    1.843868    -0.246911    -1.457854
Li    0.783442    -1.706898    -1.458178
Li   -0.928224    -1.147539    -1.455915
Li   -0.927626     0.650368    -1.454283
Li    0.781691     1.206648    -1.455645
Li    0.601871     0.669326     4.232105
Li    1.266419    -0.245132     4.234134
Li    0.601393    -1.160385     4.233791
Li   -0.473381    -0.810421     4.232049
Li   -0.471868     0.319170     4.232368
Li    0.896560     1.583772     3.643181
Li    2.226702    -0.245165     3.650115
Li    0.897925    -2.073707     3.649395
Li   -1.252043    -1.372968     3.643140
Li   -1.248353     0.883664     3.642913
Li    1.574600     0.677982     3.666564
Li    1.574791    -1.168496     3.668148
Li   -0.181327    -1.738375     3.666131
Li   -1.263446    -0.245100     3.663662
Li   -0.179568     1.246495     3.663633
Li    1.185301     2.490830     3.035316
Li    3.176780    -0.245650     3.052287
Li    1.191769    -2.977229     3.051198
Li   -2.025521    -1.927502     3.035322
Li   -2.017322     1.442659     3.033456
Li    1.868302     1.592581     3.068980
Li    2.535006    -1.168262     3.074844
Li    0.115692    -2.650817     3.072878
Li   -2.040787    -0.806074     3.063612
Li   -0.954435     1.809709     3.063365
Li    2.534109     0.677214     3.073711
Li    1.871072    -2.081897     3.074474
Li   -0.960397    -2.299981     3.068568
Li   -2.038261     0.318270     3.063443
Li    0.114079     2.159246     3.063446
Li    2.144281     2.490501     2.442992
Li    3.474100    -1.160970     2.457461
Li    0.414123    -3.540991     2.455629
Li   -2.793519    -1.354684     2.435643
Li   -1.712207     2.350378     2.434924
Li    2.816448     1.582873     2.457171
Li    2.820522    -2.073809     2.461704
Li   -0.658358    -3.198852     2.456374
Li   -2.801118    -0.242507     2.439689
Li   -0.656421     2.708522     2.439392
Li    3.472849     0.668246     2.456798
Li    2.154110    -2.977317     2.456712
Li   -1.729110    -2.839475     2.442610
Li   -2.786459     0.872290     2.435023
Li    0.403705     3.044705     2.435218
Li    3.125368     1.809038     0.542660
Li    3.132524    -2.299648     0.540186
Li   -0.776973    -3.562421     0.541822
Li   -3.140401    -0.241387     0.536257
Li   -0.761930     3.030770     0.535964
Li    2.648486     2.158356     1.497883
Li    3.318353    -1.737811     1.504599
Li   -0.182348    -3.569312     1.503606
Li   -2.971180    -0.799741     1.480545
Li   -1.237370     2.695002     1.480371
Li    3.315657     1.244728     1.504775
Li    2.655025    -2.650592     1.504222
Li   -1.257248    -3.216407     1.497302
Li   -2.967716     0.314484     1.480569
Li   -0.178448     3.042276     1.480060
Li    1.958089     3.044089     1.475097
Li    0.882394     3.370390     1.470440
Li    3.952972     0.317998     1.497183
Li    3.953249    -0.810870     1.495767
Li    1.969491    -3.540793     1.494701
Li    0.895478    -3.889340     1.495373
Li   -2.313106    -2.832846     1.475085
Li   -2.955845    -1.909825     1.471168
Li   -2.943610     1.425683     1.471364
Li   -2.286986     2.329087     1.471387
Li    2.435481     2.707982     0.528626
Li    0.301000     3.360981     0.529906
Li    3.774996     0.881414     0.541297
Li    3.776598    -1.372963     0.536692
Li    2.450004    -3.198466     0.535971
Li    0.304256    -3.893899     0.538328
Li   -1.845461    -3.183107     0.528878
Li   -3.126496    -1.354041     0.530627
Li   -3.119245     0.872341     0.530802
Li   -1.814955     2.666880     0.530782
Li    1.364858     3.041564     0.525859
Li    3.799866    -0.245902     0.536274
Li    1.385105    -3.569092     0.535160
Li   -2.494250    -2.267325     0.526920
Li   -2.482578     1.780834     0.529195
Li    2.902661     2.351776    -0.418420
Li   -0.279820     3.343382    -0.408761
Li    3.575413     1.438076    -0.415040
Li    3.579415    -1.927171    -0.427328
Li    2.916782    -2.838918    -0.427713
Li   -0.289158    -3.875398    -0.422235
Li   -1.359972    -3.517308    -0.417318
Li   -3.288994    -0.796643    -0.408356
Li   -3.286151     0.316154    -0.408193
Li   -1.337655     2.997226    -0.408243
Li    1.837889     2.693505    -0.421593
Li    3.609994     0.317304    -0.426592
Li    1.860418    -3.215925    -0.428986
Li   -2.017317    -2.610142    -0.419844
Li   -2.658159     1.224183    -0.414420
Li    0.780842     3.030057    -0.417973
Li    3.611531    -0.806088    -0.428229
Li    0.791164    -3.562190    -0.427067
Li   -2.663635    -1.708550    -0.417103
Li   -2.007507     2.119530    -0.414387
Li    3.383292     0.872462    -1.379641
Li    2.313044    -2.831999    -1.383246
Li   -1.526465    -2.935410    -1.362486
Li   -2.811848     0.657127    -1.351646
Li    0.192620     2.996520    -1.354387
Li    3.393903    -0.241949    -1.388136
Li    1.257704    -3.182511    -1.388426
Li   -2.173194    -2.039057    -1.361034
Li   -2.169694     1.553067    -1.355346
Li    1.246243     2.664853    -1.361555
Li    3.387000    -1.354000    -1.382604
Li    0.194375    -3.517044    -1.377632
Li   -2.813166    -1.139439    -1.354046
Li   -1.515922     2.440616    -1.351575
Li    2.297462     2.321860    -1.362119
Li    1.063352     0.316749    -3.095682
Li    1.065094    -0.795777    -3.098350
Li    0.006396    -1.139168    -3.096060
Li   -0.644726    -0.240550    -3.093782
Li    0.006808     0.657058    -3.093838
Li    1.828299     0.873495    -2.525570
Li    1.832539    -1.352639    -2.532933
Li   -0.285891    -2.038842    -2.526991
Li   -1.586699    -0.241124    -2.521208
Li   -0.284106     1.552786    -2.521287
Li    1.843340    -0.239966    -2.542802
Li    0.777772    -1.707831    -2.543129
Li   -0.945897    -1.147598    -2.537370
Li   -0.944708     0.662624    -2.534499
Li    0.775915     1.223928    -2.537284
Li    2.588191     1.427090    -1.943540
Li    2.597500    -1.908328    -1.959549
Li   -0.576356    -2.935313    -1.949418
Li   -2.520164    -0.240535    -1.934947
Li   -0.572649     2.440386    -1.935045
Li    2.610144     0.316716    -1.966005
Li    1.546413    -2.266308    -1.969340
Li   -1.238549    -2.047624    -1.958553
Li   -1.886123     0.662718    -1.952622
Li    0.485114     2.118901    -1.955739
Li    2.612371    -0.797992    -1.969014
Li    0.486271    -2.609623    -1.966501
Li   -1.887463    -1.147626    -1.955631
Li   -1.235692     1.558148    -1.952593
Li    1.540753     1.779941    -1.958390
Li    1.460961     3.388413     2.408467
Li    4.115341    -0.246362     2.446722
Li    1.482255    -3.869687     2.445265
Li   -2.794143    -2.466553     2.408500
Li   -2.775033     1.993406     2.401074
Li    3.355628     1.980580    -1.359741
Li    3.362949    -2.465835    -1.395415
Li   -0.882715    -3.829996    -1.382985
Li   -3.439105    -0.239304    -1.341086
Li   -0.856883     3.314073    -1.341205
Li    0.297618    -0.239005    -3.649973
Li   -4.432824    -0.235246    -1.844266
Li   -1.167815     4.258047    -1.844293
Li    0.292137    -0.235080    -4.763896
Li   -4.121503    -0.236351     0.048582
Li   -1.069636     3.962356     0.048268
Li   -3.961086    -0.798344     0.995216
Li   -1.551946     3.633010     0.994933
Li   -3.957055     0.324277     0.995191
Li   -0.485122     3.983361     0.994549
Li   -3.786927    -1.361089     1.944775
Li   -2.029112     3.291151     1.944159
Li   -3.793154    -0.238753     1.945139
Li   -0.965550     3.651057     1.944617
Li   -3.779116     0.883844     1.944298
Li    0.104022     3.991630     1.943858
Li    0.585233     4.311688     0.988150
Li   -3.943207    -1.917482     0.989264
Li   -3.928708     1.446426     0.991235
Li   -2.610721     3.259684     0.991290
Li    1.654956     3.990426     0.984694
Li   -3.307716    -2.835754     0.986574
Li   -3.282540     2.362342     0.995883
Li   -0.000100     4.297601     0.042272
Li   -4.110374    -1.356888     0.043006
Li   -4.101781     0.885820     0.044838
Li   -2.131122     3.597266     0.044856
Li    2.133088     3.649105     0.027566
Li   -2.835541    -3.185526     0.030367
Li   -3.465759     1.804619     0.041760
Li    1.068662     3.982493     0.033639
Li   -3.480900    -2.275989     0.035071
Li   -2.808754     2.708655     0.041819
Li   -0.583683     4.277235    -0.900514
Li   -4.270984    -0.796149    -0.900187
Li   -4.267450     0.324681    -0.898923
Li   -1.648840     3.927938    -0.898917
Li    2.605473     3.288318    -0.924864
Li   -2.346163    -3.525717    -0.921019
Li   -3.634061     1.239468    -0.905537
Li    1.544993     3.631248    -0.920692
Li   -2.999912    -2.621147    -0.918713
Li   -2.986837     2.147113    -0.908537
Li    0.482441     3.961626    -0.911430
Li   -3.641778    -1.712624    -0.910684
Li   -2.323444     3.043030    -0.905429
Li   -3.788010     0.668722    -1.848546
Li   -0.107163     3.927377    -1.852331
Li   -2.499290    -2.952467    -1.867158
Li   -3.143155     1.572660    -1.853475
Li    0.952338     3.595851    -1.862029
Li   -3.148506    -2.047813    -1.861427
Li   -2.489085     2.472867    -1.853394
Li    2.010599     3.255795    -1.868367
Li   -3.790833    -1.142078    -1.852022
Li   -1.828536     3.365483    -1.848387
Li    3.068421     2.912176    -1.871011
Li    1.063320     0.325095    -4.193066
Li    1.064541    -0.795364    -4.196635
Li   -0.001513    -1.141818    -4.193212
Li   -0.658048    -0.236772    -4.189114
Li   -0.001024     0.668586    -4.189299
Li    1.832689     0.886454    -3.622578
Li    1.836690    -1.355408    -3.630963
Li   -0.296920    -2.047555    -3.623115
Li   -1.608358    -0.237606    -3.614652
Li   -0.294560     1.572315    -3.614861
Li    1.846047    -0.235069    -3.638397
Li    0.774064    -1.711808    -3.638728
Li   -0.961069    -1.149724    -3.629870
Li   -0.959864     0.673487    -3.626286
Li    0.772940     1.239236    -3.630080
Li    2.598295     1.447063    -3.043680
Li    2.608531    -1.915389    -3.058079
Li   -0.592222    -2.952277    -3.045209
Li   -2.554954    -0.237541    -3.029745
Li   -0.587061     2.472510    -3.029922
Li    2.618655     0.326862    -3.067851
Li    1.548253    -2.274630    -3.071763
Li   -1.259699    -2.058558    -3.055913
Li   -1.913017     0.675125    -3.048665
Li    0.480325     2.146535    -3.052809
Li    2.621312    -0.796084    -3.071405
Li    0.479992    -2.620431    -3.068455
Li   -1.914708    -1.152367    -3.052541
Li   -1.256271     1.579583    -3.048667
Li    1.543633     1.803983    -3.056535
Li    3.363036     2.005446    -2.460225
Li   -3.493809    -0.236679    -2.436877
Li   -0.877268     3.365301    -2.436992
Li    3.385555     0.887462    -2.484930
Li    2.321858    -2.834109    -2.491337
Li   -1.551584    -2.964601    -2.465565
Li   -2.855846     0.673681    -2.454427
Li    0.187025     3.042452    -2.458366
Li    3.395141    -0.235138    -2.496355
Li    1.255478    -3.184432    -2.496920
Li   -2.210441    -2.058580    -2.468551
Li   -2.206963     1.579755    -2.460839
Li    1.249948     2.707839    -2.469214
Li    3.392791    -1.358159    -2.490697
Li    0.185714    -3.525172    -2.484975
Li   -2.857715    -1.149724    -2.458039
Li   -1.545894     2.477032    -2.454354
Li    2.307957     2.360695    -2.468526
412

Li     1.200008     2.332666     3.206980
Li    -2.405510     1.300225     3.320830
Li     0.151216     2.736939     3.460846
Li     1.274461    -0.949825     0.935498
Li    -1.165816    -1.702059    -0.463726
Li    -1.503127    -2.143863    -2.855919
Li    -1.162094    -0.331856     1.911309
Li     1.003300    -3.854913     1.152558
Li    -1.270335     0.813172     1.915193
Li     3.501480    -2.186957    -0.336697
Li    -1.209031    -1.604440     0.566994
Li     0.274803     2.699750     0.767933
Li    -1.736655     2.801822    -2.619941
Li     1.962792    -1.793656     1.057865
Li    -2.183387     2.181202     2.735679
Li     0.582024     0.678973    -2.708392
Li    -2.804923     1.236825    -2.796340
Li     0.290102     1.588149     3.498969
Li     1.421446     2.744297    -1.094581
Li     1.516102    -2.818190     1.120401
Li     0.917328     2.746906    -2.869293
Li    -0.366470     3.023267     2.527904
Li    -2.756686     0.934714     1.529016
Li    -0.034579    -1.693463    -3.195068
Li    -2.757740     0.895172     0.410950
Li     0.746474    -0.906022    -1.754596
Li    -0.355007    -0.703665     4.257795
Li     2.391117     0.490769     0.063552
Li    -1.665612    -0.774024     1.076355
Li     0.542573     0.935197     0.771685
Li    -2.332306     2.703893     0.291823
Li    -2.984417    -0.049719     1.003649
Li     3.035772    -0.277212     0.056468
Li     2.331616     0.543454     1.120471
Li    -0.783830    -2.495269     0.149443
Li    -2.029804    -0.237694    -3.636959
Li     3.391021     2.429220    -1.229836
Li    -3.503864    -1.111266    -0.093486
Li    -2.929753    -0.148719    -1.256613
Li    -1.404760     3.292017    -1.238513
Li     1.001319     1.214480    -0.043568
Li     3.144582    -2.997084     0.229566
Li     4.067291     0.826650     2.292352
Li    -0.666870    -3.127336    -0.717292
Li    -1.093258    -3.042052    -2.299850
Li    -0.742627    -3.044864     1.066185
Li     0.317696     2.156909     2.529746
Li     2.828496     1.541311    -0.060700
Li    -0.264066    -2.573093     1.970666
Li    -0.907685    -1.786680    -3.801172
Li     1.364251     1.142364     3.239041
Li     1.981940    -2.343572     1.969958
Li     1.332218     1.713952     2.259457
Li    -1.236499     2.253668     2.131730
Li    -0.851699     3.029579    -2.106311
Li     3.322871     0.550900    -1.591851
Li     0.610208    -0.583088     3.665953
Li    -0.472293     0.499223     4.171123
Li    -0.389862     1.202015    -2.495697
Li    -0.452958    -2.660140    -3.137481
Li    -0.087959    -3.485867    -2.549016
Li    -0.209639    -1.767689     4.293896
Li    -3.927829    -0.206274     0.398916
Li     0.425851    -2.479536    -2.533616
Li    -2.544945    -0.964656     0.482004
Li     3.855846     1.607615    -0.526794
Li    -0.575341    -2.026465    -2.314666
Li     0.811264    -1.053922    -3.524741
Li     3.771454     1.691551     0.557750
Li     3.784376    -1.135768     0.188536
Li     3.266258     2.529944     1.097159
Li    -1.837977     0.908377    -0.099408
Li    -3.212906     2.666977     0.875253
Li     0.186995    -0.632225     0.000705
Li     1.540225    -2.899930    -0.706331
Li     2.798530    -1.186403     0.667518
Li     1.892069     3.679976    -1.092192
Li     0.609780     1.158476    -3.676792
Li     0.732316    -1.690237     3.691525
Li    -3.462087    -1.123489    -1.225561
Li    -2.121866    -1.754552     1.135984
Li    -3.506323    -1.019096     1.066432
Li    -2.091401     3.584359    -0.286873
Li    -2.530218     2.183935    -2.253327
Li     2.781989    -1.251581    -0.459898
Li    -1.858638    -1.368837    -3.523484
Li     1.400254     0.104991     3.330929
Li    -2.103333     0.427483    -2.660555
Li    -0.477369     0.917748     3.174323
Li     0.972325    -2.693494    -1.603945
Li    -0.302297     3.473897    -1.217322
Li     2.220404     1.204410     1.989124
Li    -3.013280     0.028156     2.094868
Li     1.571753     0.273709    -2.369911
Li     0.339182    -2.985061     1.065224
Li    -0.783045    -1.233549     1.477139
Li    -2.217834     0.748551     2.430201
Li     1.549654    -0.063466     1.496452
Li     2.973433    -1.923771    -1.256620
Li    -1.209571    -2.737329     2.461630
Li     3.318950     0.682422     0.620503
Li     1.736083     2.664649     2.249342
Li    -2.629568    -2.750765     0.102832
Li     2.075604    -3.723513     1.152286
Li    -1.051483     2.022065    -2.579869
Li    -0.385891     3.591099     0.660827
Li     0.660591    -0.187287     0.863178
Li    -1.469771     1.398809     2.732516
Li    -0.629279     1.559106     4.076705
Li    -1.118547    -2.369712    -1.404606
Li     3.740333     1.711443     1.682982
Li     0.768209    -1.459074     0.088834
Li     0.009851    -3.996521    -0.671850
Li    -2.963752     1.526159     2.415348
Li    -1.896193     1.830606    -3.175001
Li    -0.683642    -1.333050    -1.382793
Li     2.449309     0.499046    -1.088388
Li    -2.983306    -0.088923    -0.092810
Li    -3.480436     1.630415    -0.765973
Li    -3.835346    -0.403465    -2.916033
Li     2.870965    -1.746691     1.694448
Li     0.992650    -3.241152     0.169918
Li     1.295873    -1.551696     1.870474
Li     0.518154     1.245775    -1.889504
Li     0.879649     3.116901    -0.158025
Li    -2.099205     0.130920     1.574284
Li     1.404372     0.524300     2.367177
Li     2.101945    -2.560154    -1.625298
Li    -2.991864    -1.932864    -0.565356
Li    -2.209854     0.220848     3.376753
Li    -1.178260     0.505931    -2.053902
Li     0.376516     2.057676    -0.166986
Li    -2.428386     1.647860    -1.289823
Li    -1.097365     0.050555    -1.172542
Li     0.200655    -2.110851     2.792932
Li    -2.219222     2.623844    -0.784954
Li    -3.461910     1.798914     1.421324
Li     0.894840    -2.115928    -0.754529
Li    -0.292493     0.576415    -3.337818
Li    -3.618548     0.687625    -1.310886
Li    -1.241449     1.004434    -3.058853
Li    -1.726434    -3.194540     1.637776
Li     0.505844    -3.751523    -1.602133
Li     1.845493     3.832870     0.750133
Li    -2.156017    -3.704447    -0.382158
Li     3.942089    -0.108432     1.853181
Li     1.805321    -1.474739    -3.201972
Li    -2.702143     2.435775     1.822491
Li    -1.147525     0.433202    -3.956075
Li     2.214349     1.828996     2.947636
Li     1.983503     3.143568    -0.193168
Li     3.166846    -1.012191    -1.882612
Li    -0.271819     0.707010    -1.542548
Li     2.288656     0.741741     2.963869
Li    -3.038098    -1.949193     0.556078
Li     0.583815    -0.110684     2.698622
Li    -0.222641    -2.084327     0.950788
Li    -0.133231    -1.137040    -4.183305
Li     3.986885    -0.327592    -1.526852
Li     2.359240     0.993225    -1.990904
Li    -2.477582     3.344808     1.192230
Li    -0.373793     0.342776     2.266360
Li    -0.918374     1.078168     0.462657
Li     1.441722     1.373630    -2.387062
Li    -0.179506    -0.017712    -4.229185
Li     0.721036     3.141521     2.566769
Li    -2.159454     0.920036    -3.613740
Li     3.038455    -0.729337     2.179190
Li     2.611573    -2.652861     1.142513
Li    -1.664777     2.327372    -1.699235
Li    -2.724683     0.831853    -0.758292
Li    -1.150521    -1.334494     3.889594
Li     2.135649    -0.481090    -0.445439
Li     1.490646     0.416938    -0.559504
Li    -1.931485    -0.684868    -2.571549
Li     0.393579    -2.395489     0.173869
Li    -1.360633     2.745401    -0.258521
Li     1.012186     1.807252    -0.970615
Li    -0.920591     3.195677     1.615350
Li     2.205432    -0.842462     1.576747
Li     0.487175     0.482075     3.642215
Li    -1.167910    -4.137856    -0.693924
Li    -1.532997     3.462511     0.649900
Li     0.655991     0.280198    -0.002572
Li     4.185223     0.732785     0.085204
Li     0.818237     2.472611     1.663925
Li    -1.539153    -0.872663    -1.119713
Li    -0.177621     1.789486     0.749071
Li    -0.906892     3.810651    -0.253045
Li     0.957223    -2.157484    -3.443824
Li    -2.029932    -2.510645    -1.984893
Li     1.441201     3.207503    -2.016241
Li     0.276257    -2.624928     3.804299
Li    -1.592872     2.034343     3.653713
Li    -0.225489     0.143876    -0.576074
Li     1.382480    -1.086439    -0.785640
Li    -0.042766    -0.988351    -2.286214
Li    -0.922461     1.504610    -1.611374
Li    -2.574147    -1.398767     2.583263
Li     1.244694    -0.483527     0.066686
Li     2.178537    -1.414539     2.541366
Li    -1.193457    -3.431448     0.126961
Li    -3.922260    -0.161993     1.481321
Li    -3.192951     0.628633     3.000299
Li     1.748856    -0.808789    -2.265060
Li     2.546286    -0.182333    -1.941610
Li    -1.055616    -0.608653    -1.995408
Li    -1.725758    -4.445859     0.164517
Li    -0.559887    -4.407998     0.230534
Li    -1.254663    -2.148810     1.495515
Li     1.594163    -0.246818    -1.359375
Li     1.581998    -3.626294    -1.547995
Li    -2.398048     3.155972    -1.740606
Li    -1.612280    -2.692866    -0.481754
Li    -1.697125    -2.625553     0.674765
Li     1.340870     3.458545     1.672018
Li     3.485476    -0.138480    -2.507771
Li    -0.597963    -3.757900    -1.672427
Li     0.515742     1.777419    -2.759259
Li    -0.718613    -0.793880    -0.574206
Li    -0.142846     2.650643    -2.947504
Li     2.381632     1.433894    -2.950921
Li     1.683305    -0.380964    -3.290283
Li     0.394696    -3.476236     2.074197
Li     2.288692     3.042042     1.341082
Li    -2.547740    -0.876481     1.560499
Li    -2.906893    -0.210833    -2.302489
Li     0.624577    -0.626579     1.808236
Li    -1.874674     3.123922     2.173592
Li     3.170495     0.765743     1.727686
Li    -0.252723    -0.185928     1.411146
Li    -0.246903     0.044539    -2.397242
Li    -0.775625     2.446964    -1.067541
Li    -3.096204    -1.812041     1.646463
Li     1.932401     1.452904     0.463719
Li     1.037146    -3.413021    -2.540218
Li    -0.850017     2.558948     0.645701
Li     2.819691     1.510823     1.048401
Li    -1.672495    -1.306245     2.065109
Li     2.360369     4.134883    -0.214302
Li     3.400149    -2.113337     0.814211
Li     2.910875     3.268722    -0.734911
Li    -0.109600     2.183712    -1.967752
Li    -3.049336    -0.515650     3.092996
Li    -0.164605    -2.151732    -0.788385
Li    -1.479447     0.856233     3.730523
Li     1.447138     0.429796     0.552553
Li     0.666117     0.105470    -3.656139
Li     1.426702     1.105397     1.429093
Li     2.331360    -1.659491    -2.228349
Li    -0.223668    -0.773511     2.394682
Li    -0.661104     2.020523     3.142300
Li    -0.113167    -2.784146    -1.639591
Li     0.196873    -1.580817     1.849001
Li    -2.509526     1.812620     0.855727
Li    -0.158663    -0.588652    -3.298745
Li    -0.368832     1.064682    -4.372217
Li    -1.608615    -0.877354    -0.053148
Li    -2.721465     0.706022    -1.803575
Li     0.332636     3.175479    -2.056546
Li     0.431847     1.003464     2.650988
Li     1.487941    -3.328621     2.110135
Li     1.556457    -0.522316     2.379442
Li     1.562973    -2.331182    -2.574097
Li    -2.144432    -0.944129     3.498218
Li     0.983931     1.826735     0.786675
Li    -2.584470    -2.825904    -1.064183
Li    -2.932034    -2.076253    -1.642390
Li     3.282729     0.181146     2.679082
Li    -0.481337     1.455977     2.247829
Li    -1.563798    -3.338240    -1.363342
Li    -2.626796    -2.762189     1.172613
Li     0.837998    -2.513845     2.018759
Li    -1.303038     2.935800     3.117317
Li    -2.129111    -2.280516     2.054853
Li    -1.076819     2.495310    -3.514509
Li     2.153112    -3.788231    -0.605109
Li    -3.372144    -1.255118    -2.335190
Li     1.340996    -2.010112     2.905106
Li     1.390612    -1.711321    -1.635455
Li     2.996178    -0.290336     1.195328
Li    -3.686164     0.713587    -0.158283
Li    -0.671304     1.963681    -0.137788
Li     0.200577    -1.152033     0.956097
Li    -3.217542     2.485651    -1.378149
Li    -1.300509     0.243598     2.813159
Li    -2.469999    -1.666550    -2.569695
Li     4.053134    -0.286005    -0.408186
Li     3.040823    -0.338729    -0.971063
Li     2.348849     0.094290     2.054899
Li     3.819171     1.539466    -1.695368
Li    -1.132442     0.147778    -0.098211
Li    -3.270472     2.626206    -0.310606
Li    -3.760071     0.788999     0.876997
Li     2.149263    -0.386876     0.656422
Li    -2.097182    -0.386848     2.502488
Li     0.859811    -3.043986     2.923116
Li    -0.261199     2.962342    -0.165851
Li     1.492728     0.841811    -1.450452
Li    -0.308005    -1.514229     0.051221
Li     0.632260     0.837281    -0.904224
Li     3.319773     0.556415    -0.458919
Li     2.364097     2.843494    -1.577194
Li    -0.283426     0.237229     0.485964
Li    -2.144111    -3.601187     0.700125
Li    -3.988833    -0.071874     2.651422
Li    -1.063137    -0.719685    -3.848267
Li     0.031597     1.085701    -0.117425
Li     1.453240     2.855351     0.790720
Li     0.784416     3.733676     0.687472
Li     4.155018     0.778591     1.189381
Li    -1.135872    -0.793577     2.930570
Li     4.289948     0.688559    -1.098066
Li    -1.078274     1.647713     1.269563
Li    -1.218108    -4.022274     1.131328
Li     1.603882    -1.042102     3.434137
Li     2.655028    -0.778628    -2.887109
Li     1.470672     2.184380    -0.144060
Li     1.514128     0.817041    -3.355325
Li     0.136699     3.905932    -0.214791
Li     2.004953     1.382587    -0.631820
Li    -0.398549    -0.166905     3.301043
Li    -2.044107     0.053711     0.458890
Li     3.929659    -0.149704     0.672980
Li     0.797957    -1.940897     1.051833
Li    -3.449901     1.674853     0.349321
Li    -1.953386     1.574542     1.874900
Li    -1.891344     0.966515     0.947078
Li    -0.689598    -0.730570     0.523232
Li    -0.746858    -2.218243     3.377041
Li    -0.914514     1.040053    -0.661290
Li    -1.000850    -1.196231    -2.929922
Li    -0.219790    -1.241864     3.251970
Li    -1.731023     2.528349     1.267514
Li    -0.083855    -3.394729     0.193785
Li     0.418109     2.332010    -3.742004
Li     2.127811    -3.119942     0.228595
Li     2.828524     1.907939    -2.075674
Li    -1.846462     1.356575    -2.224068
Li    -1.501863    -1.590054    -1.962514
Li     1.421238     1.873623    -3.348402
Li    -3.391609     1.585756    -1.880641
Li    -3.744684     0.821817     2.043893
Li     0.216087     3.355342     1.646248
Li    -3.557105    -0.890747     2.114446
Li     2.687121    -2.765790    -0.647361
Li     2.357869     2.381842     0.520225
Li     2.406788     2.322928    -0.673740
Li     3.723762    -1.247191    -0.904009
Li     1.883672     2.327488    -2.542510
Li    -2.575233     1.746772    -0.247335
Li     1.811184     2.068486     1.411127
Li    -1.332312     1.535960    -4.007873
Li    -1.987844    -0.101709    -1.695990
Li     3.118106     1.392775     2.618507
Li     0.769448    -0.380392    -2.728660
Li     0.343281     2.617828    -1.102070
Li     1.436540    -2.325627     0.211692
Li    -0.071033    -3.884842     1.103297
Li    -1.697150    -1.855691     2.948208
Li     2.250125    -1.018299    -1.366495
Li    -2.013151    -0.047089    -0.605316
Li     2.533194    -2.158405     0.218802
Li     1.876043    -1.334545     0.083682
Li    -0.197964     2.367101     1.615943
Li     0.847026     3.599123    -1.172836
Li     0.959885     2.258422    -1.925013
Li    -0.036422     1.610077    -1.030799
Li    -0.146004    -0.368519    -1.462081
Li    -2.514121    -1.027572    -1.716696
Li    -0.724975    -3.544884     2.039784
Li    -0.401566     1.612996    -3.408321
Li    -0.412513     0.852352     1.393176
Li    -2.496349    -0.964165    -0.586750
Li    -1.321904    -0.183554     3.842773
Li     2.861560     1.436040    -1.121417
Li    -2.154513    -1.860284    -0.004127
Li     2.730346     2.227324     2.037837
Li    -1.176208     0.202647     1.027787
Li     0.392767     1.510091     1.650248
Li     0.654544    -1.121424     2.771359
Li    -0.276454    -3.147391     2.888590
Li    -3.583067     0.538387    -2.414761
Li    -1.112487    -0.035893    -2.946150
Li     0.221430    -1.203564    -0.797750
Li    -0.687232    -1.683031     2.452492
Li     3.350998     2.497605    -0.074399
Li     1.960345     1.859244    -1.561934
Li     2.473249    -0.450170     3.044488
Li     0.872681    -1.522944    -2.601374
Li     2.010615    -1.972340    -0.753872
Li     1.332553     4.023842    -0.184385
Li    -2.085182    -1.900207    -1.134487
Li     1.055595    -3.981625    -0.650506
Li     0.357928    -1.867655    -1.703395
Li    -1.601509     1.929623     0.317948
Li    -3.006432     0.290199    -3.264865
Li     2.883106     3.345382     0.413128
Li    -1.547967     1.774791    -0.712404
Li    -1.833180     0.825633    -1.192858
Li    -3.876152    -0.277993    -1.849442
Li     0.728191    -0.270426    -0.827419
Li     1.634820    -4.185743     0.313360
Li     0.507361    -4.298817     0.209235
Li     3.674115    -1.044496     1.255305
Li    -3.864087    -0.282605    -0.668597
Li     2.473132     0.334885    -2.925245
Li     0.537064     0.433969     1.798201
Li    -2.856199    -0.832846    -3.233781
Li     0.448345    -3.073501    -0.680370
Li     0.634191     0.216502    -1.838567
Li     3.332810     0.990740    -2.578618
