201

Pd      8.474957     12.584164     16.665012
Pd     14.583108     12.602630     14.648686
Pd     10.492140     16.692592     14.638489
Pd     12.528568      8.501324      8.535462
Pd     18.658566     12.582777     14.618088
Pd      8.478847     12.581030      8.562768
Pd     10.493926     16.696299     10.551877
Pd     14.581822     16.699026     10.551698
Pd      8.477650      8.491653     12.591729
Pd     14.584665      8.510957     14.648149
Pd     14.557553     12.579297     18.761335
Pd     10.508140     12.580448      6.491990
Pd     10.504161     12.601232     10.579596
Pd     12.532508     14.632671     18.773534
Pd      6.421702     12.582195     14.621946
Pd      6.407679     10.534860     12.592748
Pd     12.528354      6.425675     14.671951
Pd     18.662724     12.583908     10.566866
Pd     14.579970     12.590997     10.576055
Pd     18.677407     10.540133     12.585008
Pd     14.582311     16.697515     14.635136
Pd      6.419569     12.580625     10.577543
Pd     12.529096     18.781344     14.646457
Pd     16.595302     12.586114      8.551608
Pd      6.408359     14.635002     12.592349
Pd     10.502462     12.600838     14.648026
Pd     10.514246      8.517054     10.559731
Pd     12.528679     10.536852      6.466122
Pd     16.597131     12.588057     16.668562
Pd     10.487162      8.509727     14.656535
Pd     10.506037     12.575698     18.755788
Pd     12.531386     18.795856     10.520933
Pd      8.473472     16.711123     12.587622
Pd     12.517760      6.434015     10.536398
Pd     14.557395     12.585596      6.483400
Pd     12.531096     14.644823      6.466619
Pd     18.671874     14.639139     12.589093
Pd     16.601154     16.716851     12.583287
Pd     12.530490     10.533830     18.783806
Pd     16.608096      8.493008     12.597961
Ag     20.599406      8.501426     12.578965
Ag     16.534334     12.574419      4.522738
Ag     10.513026      4.407121     10.579895
Ag     10.506040     10.571076     16.687573
Ag     12.539898     12.593135     16.748324
Ag     18.626745     16.692554     14.615687
Ag     12.544034     14.646265     14.644275
Ag     10.482865     18.756555      8.509173
Ag     10.496461     14.668624     12.605451
Ag     10.515333     18.745966     12.579125
Ag     18.626814     14.626849     16.655611
Ag     10.514035      6.468813     12.594654
Ag     14.571391      6.446097     16.672336
Ag     12.531141     10.555403     10.571574
Ag     16.579498     20.805783     12.567307
Ag      8.467459      8.479583      8.528146
Ag     10.501353      6.474803      8.545830
Ag     14.549049      6.456954     12.613123
Ag     16.592721      8.472629     16.678961
Ag     12.525077     18.769723      6.458208
Ag     16.651050     12.595996     12.600404
Ag     14.567905     10.571958     16.689944
Ag     10.484348     18.748886     16.658199
Ag     16.586093     14.623500     18.713442
Ag     14.568172      8.489233      6.501274
Ag     18.599990     12.578941      6.537127
Ag     20.622693     12.575542      8.585642
Ag     12.524300      4.453439     16.663136
Ag     10.480980     16.702796     18.728958
Ag     16.593718     16.711710     16.672686
Ag     18.605121      6.436551     12.585636
Ag      8.467218     18.738380     14.610097
Ag      8.470243     10.536666      6.518224
Ag      8.468528     10.532250     18.709880
Ag     12.534898      8.500394     16.660932
Ag     12.522969      4.396502     12.586838
Ag     14.535653     10.544877     20.754156
Ag     10.521010     20.791802     14.587477
Ag      6.441099     16.685891     14.616356
Ag     12.539062     12.596855      8.492698
Ag      8.473053     14.626810     14.621616
Ag     12.523405      8.490094     20.711147
Ag     20.647077     10.550049     14.595870
Ag      6.435406     10.531247      8.550506
Ag     12.540677     10.563004     14.656926
Ag      6.437347     14.621784      8.547301
Ag     10.508385     14.611545     16.685450
Ag     16.607581     10.561670     10.573912
Ag      4.469539      8.499561     12.584444
Ag     12.527027     12.575541     20.769974
Ag     10.522825      4.416246     14.599863
Ag     12.520252      6.459892      6.505740
Ag     18.624995      8.483220     10.543553
Ag     16.606417     14.631927     14.621883
Ag     16.587559     14.627631      6.501729
Ag      8.470588     20.794420     12.568859
Ag     12.535032     16.708457      8.557188
Ag      6.440219     16.685841     10.549743
Ag     14.521163      4.402437     14.609443
Ag     10.517625     14.600193     20.733378
Ag     14.549768     18.750689     12.577573
Ag     14.531004     14.606931      4.495153
Ag      8.471841     14.617956     18.703530
Ag      8.475592     14.628788     10.580969
Ag      4.447805     12.573970     16.595199
Ag     10.477408      8.471253     18.741698
Ag      8.471854     14.616644      6.520203
Ag     14.530986     10.555790      4.491553
Ag     10.483893      6.445888     16.674454
Ag     16.593020     18.745029     14.611361
Ag      8.474100     10.557083     14.625540
Ag     16.609434     10.560266     14.627866
Ag     12.535931     16.698936     16.650009
Ag     18.608274     18.756519     12.575044
Ag      8.435575     12.593272     12.604934
Ag      8.505942     12.568362     20.703163
Ag     12.524539     16.668995     20.694140
Ag     16.592577      6.450241     14.630052
Ag      4.438277     12.570976      8.608924
Ag     10.518581     10.562384      8.547775
Ag     14.577214     16.707535     18.734829
Ag      4.423732     10.552443     14.593593
Ag     18.598173     12.572087     18.672662
Ag     14.578779     16.712969      6.470852
Ag      6.443887      8.487879     14.622176
Ag     12.538813     16.751858     12.593687
Ag     10.498077     10.539853     12.616225
Ag     10.489078      8.494471      6.498855
Ag     20.646646     14.613891     10.572710
Ag     12.526151     18.760817     18.721483
Ag     14.586641     10.549654     12.626521
Ag     14.525025      4.425096     10.581428
Ag     12.522403     20.753602      8.501806
Ag     20.642033     14.607878     14.599201
Ag     16.594017     18.751979     10.541644
Ag     12.520127      4.451233      8.541998
Ag      8.510359     12.575647      4.535664
Ag      8.477874      4.409865     12.580538
Ag     14.526300     20.810996     10.560855
Ag     14.589192     14.668449     12.603487
Ag     14.559749      6.457279      8.522945
Ag     14.573212     18.762325      8.509003
Ag     16.591580     10.534347      6.502996
Ag     12.543891     14.645434     10.575241
Ag     18.631053      8.486251     14.625446
Ag      6.440473      8.485880     10.554075
Ag     12.522700      6.426678     18.732573
Ag     12.524784     20.739266     16.646913
Ag     10.517759     14.600745      4.506301
Ag     14.569401     14.615693     16.685059
Ag     10.479267     16.710248      6.475353
Ag      8.468659      6.456206     14.620354
Ag     16.626130      8.454193      8.488894
Ag     14.525126     20.792845     14.583617
Ag     16.569787      4.403909     12.592020
Ag     20.650372     12.583974     12.585903
Ag     18.629376     10.530895     16.657421
Ag      8.480337     10.553716     10.586845
Ag      8.466549     18.742052     10.543738
Ag     14.573986     18.752501     16.658221
Ag      4.425755     14.605415     14.596502
Ag     16.605571     14.632245     10.574519
Ag     18.628114     16.694419     10.545747
Ag     12.524527     20.839289     12.573682
Ag     18.636251     10.530346      8.531881
Ag      4.469860     16.655458     12.579703
Ag     16.588649     10.534422     18.716419
Ag     12.525407      8.461140     12.637350
Ag     14.530716     14.602816     20.745720
Ag     10.509616     14.617677      8.539975
Ag     12.527633     12.580137      4.488055
Ag      6.451906     12.574603      6.557318
Ag      6.453113      6.439388     12.584070
Ag     20.660995     10.548168     10.576682
Ag      6.450109     18.746650     12.574815
Ag     14.578620      8.471373     18.744440
Ag     16.609256      6.433127     10.541497
Ag      6.437743     14.624519     16.649190
Ag     12.541946     12.603201     12.612787
Ag      6.455905     12.569369     18.662332
Ag     16.592246     16.716150      8.510279
Ag     20.601601     16.663553     12.575898
Ag      8.465620      8.474389     16.680144
Ag     18.629241     14.632330      8.528870
Ag      8.469735     16.705387     16.667241
Ag      4.418953     14.603388     10.591083
Ag      4.428725     12.579980     12.594238
Ag     12.523290      8.512815      4.522104
Ag     14.566078     14.619744      8.536030
Ag     10.512755     10.544374     20.749045
Ag     12.525602     16.659799      4.518568
Ag     10.519285     20.800415     10.558716
Ag      8.472742      6.458029     10.556116
Ag      4.414882     10.547680     10.593930
Ag     20.615215     12.573742     16.603204
Ag     10.515257     10.557334      4.496353
Ag     14.556186      8.503145     10.568420
Ag     14.556902     10.567428      8.533615
Ag      6.435815     10.530033     16.652870
Ag      8.469717     16.707460      8.516269
Ag     16.541422     12.570549     20.712822
201

Ag     18.365757     -0.301904    -13.960663
Ag      9.503007    -12.126743    -10.274632
Ag     10.672115     -3.071641    -14.273689
Pd     22.241307     -5.381856     -9.821207
Ag     22.049907     -5.365195     -5.750300
Ag     19.425218     -8.558515    -20.110995
Ag     24.010697     -4.730676     -7.697842
Ag     13.695995     -6.321289     -4.015332
Ag     24.286369     -4.652322    -15.735496
Ag     15.397137     -3.517612    -20.166435
Ag     20.158891      0.370802    -11.880126
Ag     18.464822    -13.333633     -5.815050
Ag     15.124642     -3.575000    -12.087665
Ag     15.341973    -10.141615    -12.141037
Ag     11.808046     -0.447484    -10.177545
Ag     17.272035     -2.883598    -18.133135
Ag     15.537976      0.894829     -9.980243
Ag      8.941972    -10.245924    -12.310781
Ag     24.338445    -11.113576    -11.704045
Ag     20.845419     -8.030721     -5.785648
Ag     13.957521     -6.196221    -12.171573
Ag     22.392218    -11.850520     -9.804566
Ag     17.377449     -4.904604     -3.918470
Ag     19.218656     -8.721698    -11.986188
Pd     17.117013     -2.847024    -14.059237
Pd     17.462003     -9.298025    -18.161224
Ag     16.226082    -12.006865    -18.198965
Pd     12.574440     -8.814471     -8.190438
Ag     19.437740     -4.195666     -5.776709
Ag     13.603429      0.119568     -8.046120
Pd     16.115812     -5.506983    -18.210645
Pd     19.771415    -10.567224     -9.866219
Pd     14.184982    -12.704611    -12.151993
Ag     24.193364     -4.653067    -11.771075
Ag     17.512764    -15.790484    -14.073163
Ag     11.633420    -11.374062    -16.290638
Ag      8.701178     -3.764776    -12.310210
Ag     13.833097     -6.224641     -8.112901
Pd     18.556727     -6.776130    -13.966342
Ag     15.017558    -10.063302     -3.976373
Ag     19.286181     -8.572239    -16.007979
Ag     20.074204    -10.526063    -18.075839
Ag     24.817894     -6.576798     -9.667716
Pd     18.634059    -13.280601     -9.962932
Pd     19.018151     -2.227717    -11.955390
Ag     17.821777     -4.816125    -11.989531
Ag      9.546038     -5.660287    -14.355319
Ag     12.673873     -2.319616    -16.195414
Ag     11.199380     -4.969537     -8.193980
Ag     20.967879     -1.495377    -13.907874
Ag     19.750217     -4.113847    -13.931026
Pd     15.598447     -5.579240     -5.891549
Ag     21.662018     -9.993540     -7.769054
Ag     17.441641    -15.857410    -10.056932
Ag     16.555135     -0.958986    -16.056888
Ag     14.350124    -12.668885    -16.277834
Ag     19.364981    -15.235906    -11.972623
Ag     21.309698    -14.421698    -13.892951
Ag     16.183307     -1.059982     -7.927627
Ag     16.407979     -7.446375     -7.894931
Ag     13.076398     -8.752052    -20.323489
Ag     15.533187    -16.502580    -12.086630
Ag     15.979739     -5.558413    -14.097975
Ag      9.962284     -7.633263     -8.260531
Ag     14.228517     -1.697624     -6.023570
Ag     11.770382     -6.966639     -6.154016
Pd     22.393870     -5.302800    -13.827816
Ag     13.340165    -10.809886    -10.121891
Ag     19.960540     -6.069499     -3.821893
Ag     16.867898     -7.421119    -20.243842
Ag     11.886252     -0.443885    -14.123475
Ag     14.237550     -6.198768    -20.275752
Ag      8.193200     -8.307061    -10.365934
Ag     17.215100     -9.433162    -10.015163
Pd     18.386056     -6.782098     -9.991098
Ag     20.747016     -1.549339     -9.795050
Pd     13.332454     -4.302549    -14.187644
Ag     20.430608     -6.061122    -11.883334
Ag     12.169662    -13.437910    -10.159168
Ag     15.658186     -9.927265    -20.224287
Ag     18.924638    -13.182020    -18.101952
Ag     12.220255     -6.893981    -18.353431
Ag     22.537186    -11.868911    -13.855555
Ag     25.560196     -8.481409    -11.714603
Ag     23.155125     -7.209775    -15.888723
Ag     14.808618     -3.676931     -4.031524
Ag      9.397981     -5.691480    -10.253149
Ag     12.113277     -6.864436    -14.188232
Ag      8.796033    -10.249567     -8.317706
Pd     14.770074     -8.182932    -14.175148
Ag     18.071116     -4.749557    -20.135769
Ag     10.358590    -13.986005    -12.291645
Ag      7.567249     -6.356361    -12.389386
Ag     12.432479     -8.882999     -4.136689
Ag     18.848445     -8.750983     -3.896279
Pd     19.925277    -10.543704    -13.992089
Ag     17.964107     -4.843535    -16.042337
Pd     22.985800     -7.299687    -11.796581
Ag     13.917410      0.195092    -16.195333
Ag     18.191099     -0.253729     -9.852435
Ag     16.678316     -7.429420    -16.158097
Ag     13.447961     -4.254012    -18.240534
Ag     18.022250    -11.342914    -12.028660
Ag     20.948891     -8.010237     -9.840944
Ag     21.462179     -3.444675     -7.748766
Ag     15.342239     -3.579736    -16.103746
Ag     22.462735     -5.291020    -17.842715
Ag     16.334135     -0.992490    -12.012620
Ag     16.928088    -13.884746    -16.090956
Pd     16.102880    -11.969193    -14.094705
Ag     12.984365    -15.341758    -12.194172
Ag     14.790003    -14.597708    -10.115262
Ag     15.666757      0.917122    -13.991818
Ag     20.599369    -12.533511    -11.892765
Ag     13.235497    -10.809234     -6.136726
Ag      8.313515     -8.333665    -14.391737
Ag     16.228560     -7.455125     -3.955077
Ag     16.609034     -7.420452    -12.077167
Pd     14.868693     -8.084891    -18.231825
Pd     15.020600     -3.592136     -8.006332
Ag     13.710497      0.198644    -12.111915
Ag     18.956743     -8.719308     -7.916360
Ag     12.543952     -2.393418    -12.131173
Ag     20.572255     -6.021329    -20.014791
Ag     16.803854    -13.910180    -12.073720
Ag     23.130617    -13.773940    -11.789986
Pd     13.205505     -4.359451    -10.115702
Ag     11.088203     -9.501440    -18.292586
Ag     15.786131    -12.024153     -5.976803
Pd     14.553239     -1.654326    -14.125957
Ag     17.501681      1.630037    -11.938902
Ag     17.359991     -9.344764    -14.036672
Pd     14.340776     -1.726402    -10.043731
Pd     20.534436     -5.985703    -15.972793
Pd     18.634758     -6.716773    -18.137046
Ag     16.845843     -2.959992     -5.918321
Ag     23.446584     -2.734386     -9.743187
Ag     21.242593     -7.967803    -17.995000
Ag     19.159818    -15.184792     -7.921101
Ag     14.064979     -6.184006    -16.255437
Ag     21.193555     -7.973691    -13.933562
Pd     12.902137     -8.826201    -16.297435
Pd     14.619068     -8.153000    -10.053099
Ag     11.496997     -4.939524    -16.271335
Ag     21.131982    -14.450966     -9.915777
Ag     10.564179     -9.591404     -6.230837
Ag     14.961755    -14.568661    -14.139830
Ag     14.647734     -1.628864    -18.173970
Ag     13.684242    -10.663381    -18.312539
Ag     17.580282     -4.839064     -7.937955
Ag     10.232696     -7.548277    -16.341989
Ag     18.129954    -11.248903    -16.069666
Ag     17.798093    -11.329315     -7.987352
Pd     16.989318     -9.394791     -5.872274
Ag     23.563747     -2.706499    -13.741872
Pd     20.194306     -6.089882     -7.865309
Ag     11.374372    -11.468240     -8.180134
Ag     11.996179     -6.953751    -10.221368
Pd     18.708494    -13.242675    -14.075296
Ag      9.681090    -12.149199    -14.365340
Ag     15.176186    -10.119159     -8.069854
Ag     19.640401     -4.155422     -9.921784
Ag     20.473589    -12.589586     -7.885715
Ag     16.995322     -2.877014     -9.949349
Ag     15.792387     -5.513155     -9.995679
Ag     24.904195     -6.568234    -13.758935
Ag     12.367371     -2.418817     -8.107767
Pd     10.107510     -7.596878    -12.310596
Pd     18.180895     -6.787766     -5.894186
Ag     12.345784    -13.374231    -14.249608
Ag     18.204792    -11.210292    -20.131120
Ag      9.148986    -10.222195    -16.288146
Pd     16.018525    -11.994165     -9.995357
Ag     15.470976    -10.050255    -16.170158
Pd     11.542998    -11.470608    -12.279072
Ag     18.844801     -2.195509     -7.804244
Ag     19.666103    -10.688247     -5.783853
Ag     20.771998    -12.486490    -15.997683
Ag     13.020324     -4.380343     -6.071162
Ag     19.474185    -15.105712    -15.994625
Ag     23.709128     -9.223645    -13.813109
Ag     22.826634     -7.275829     -7.701263
Ag     14.037009    -12.758703     -8.091971
Ag     22.683346     -0.886113    -11.721418
Ag     21.942084     -9.884542    -15.916962
Pd     14.438356     -8.181370     -5.972670
Pd     10.880181     -9.481515    -14.330969
Ag     10.528346     -3.080626    -10.160264
Ag     12.711214     -8.837503    -12.152254
Ag     21.734578     -3.396151    -15.921699
Pd     21.585908     -3.426311    -11.836699
Ag     16.594887    -13.925699     -7.968566
Ag     17.600944    -11.361306     -3.902113
Ag      9.946607     -1.158533    -12.227674
Pd     11.331264     -4.999974    -12.208449
Pd     21.757218     -9.880150    -11.885310
Ag     19.105565     -2.128003    -16.025696
Ag     23.603502     -9.211634     -9.714720
Ag     19.850714     -4.104974    -17.975716
Ag     13.546141    -10.742476    -14.241432
Pd     10.686060     -9.505445    -10.255515
