201

Ag     14.531949     14.531639      4.269452
Ag     12.499917      6.375910     18.639095
Ag      8.412483     10.442802     18.691813
Ag     12.500174      4.417750     16.553478
Ag     20.582092     12.500090     16.553933
Ag     10.467880     14.532484     20.729425
Ag     10.467661     18.575791     16.579536
Ag     20.622310     14.480124     14.517526
Ag     20.622140     10.520013     14.517973
Ag     10.468594     14.531532      4.268668
Ag     10.442906      8.412713     18.691998
Ag      4.377515     14.479939     14.517009
Ag     14.531943      6.424393     16.580842
Ag      6.424171     10.468021     16.580397
Ag     12.500113      6.375842      6.361666
Ag     14.557439     16.587562     18.690828
Ag     14.479901      4.377283     10.483252
Ag      6.410146      8.445252     14.553616
Ag     14.532012      6.424150      8.420281
Ag     10.519885     20.622508     10.482213
Ag      8.444998      6.409707     10.446531
Ag     10.442881     16.587216      6.307814
Ag     18.589760      8.445325     14.554213
Ag     14.479919     20.622699     14.517157
Ag      6.424187     14.532068      8.418852
Ag      6.410454      6.410088     12.500232
Ag      8.445000     18.590341     14.553215
Ag     18.589524      6.410232     12.500443
Ag      6.375758     12.500035      6.360487
Ag     18.589678     16.554928     14.553533
Ag     16.546054      8.453872     16.585960
Ag      6.424306     10.467914      8.419269
Ag      6.410258     16.554832     10.446039
Ag     16.546320     16.546180     16.585030
Ag     14.532027     18.575883     16.579816
Ag     16.555200      6.409748     10.446760
Ag     12.499973      4.377204     12.500670
Ag     10.520017     20.622807     14.516956
Ag     14.480160      4.377455     14.517815
Ag     12.500333     12.499474      4.153044
Ag      8.444997     18.590254     10.445864
Ag     10.467963      6.424196      8.420108
Ag     12.500088     20.623129     12.499406
Ag     18.589702      8.445129     10.446819
Ag     10.442881      8.412441      6.308923
Ag     16.555156      6.410031     14.554159
Ag     14.532233     10.467670      4.270387
Ag     14.557271      8.412487      6.309236
Ag     18.589486     18.590019     12.499891
Ag      6.410189     16.554810     14.553118
Ag     16.555092     18.590264     14.553566
Ag     18.575829     14.531898      8.419375
Ag     10.468055     10.468317     20.730566
Ag      6.410517      8.445044     10.446444
Ag      8.453737      8.453805     16.585463
Ag     18.589812     16.554719     10.446374
Ag     18.624100     12.500228     18.639773
Ag     14.531491     14.532224     20.730198
Ag      8.412564     10.442715      6.308285
Ag     14.531184     10.468543     20.731512
Ag      4.377853     14.479995     10.481941
Ag     16.555156     18.590133     10.445956
Ag      4.377977     10.519742     10.482081
Ag     12.500002     18.624373     18.638105
Ag     16.587608     10.442648      6.308808
Ag      8.412243     14.557268     18.690911
Ag     10.442469     16.587434     18.690391
Ag     20.622073     10.520043     10.482693
Ag      4.376814     12.500124     12.499371
Ag     14.532028     18.575702      8.419474
Ag     16.587603     14.557043      6.308219
Ag      6.410446     18.590089     12.499399
Ag      6.375384     12.499982     18.638928
Ag     18.575540     10.468090     16.581322
Ag      8.444816      6.409863     14.553984
Ag      4.377562     10.520164     14.517255
Ag      8.453835      8.453736      8.414835
Ag     10.520151      4.377196     10.483243
Ag     20.623031     12.499960     12.500420
Ag     16.546349     16.546152      8.414621
Ag     20.622240     14.479888     10.482689
Ag     16.546237      8.453701      8.415121
Ag     18.624476     12.499844      6.360854
Ag     18.575869     10.467756      8.419588
Ag     10.519779      4.377374     14.517801
Ag     18.575743     14.532214     16.580860
Ag      6.424032     14.532000     16.580096
Ag      8.453766     16.546191      8.414459
Ag     16.587077     10.443096     18.692796
Ag     14.480072     20.622402     10.482079
Ag      8.412748     14.557153      6.307564
Ag     14.557485     16.587125      6.308245
Ag     14.557201      8.412900     18.692407
Ag     10.467873      6.424280     16.580738
Ag     12.499443     12.500967     20.846924
Ag     16.587321     14.557247     18.691916
Ag     10.468082     10.467948      4.269850
Ag     10.467902     18.575718      8.419178
Ag      8.453553     16.546155     16.584484
Ag     12.500162     18.623997      6.360830
Ag     16.547766     12.500467     20.647813
Ag     12.500201      8.451651      4.354044
Ag     16.548213     12.499768      4.353182
Ag     12.499740      8.451913     20.647368
Ag     20.585097     16.548661     12.500110
Ag     12.500034     20.582006      8.446279
Ag     12.499692     16.548471     20.645445
Ag     12.499911      4.417810      8.447282
Ag     16.548185     20.585379     12.499707
Ag     20.582177     12.499841      8.446611
Ag      4.417565     12.500168     16.553301
Ag      8.451519     20.585500     12.499530
Ag      4.415146     16.548682     12.499498
Ag     12.500277     16.548168      4.352985
Ag     12.499999     20.582042     16.553049
Ag      8.452044     12.500303     20.646628
Ag      4.417769     12.499920      8.446144
Ag     16.548303      4.414718     12.500531
Ag      8.451523      4.414539     12.500298
Ag     20.584906      8.451277     12.500450
Ag      8.451944     12.500032      4.352722
Ag      4.415144      8.451338     12.499939
Ag      6.438839     10.500488     12.499808
Ag     12.500157     16.541600     12.499770
Ag     18.561235     14.499651     12.500102
Ag     16.519748     16.519381     12.499775
Ag     10.495043     14.504701     16.666229
Ag      8.473537     12.500039     16.621640
Ag     10.493768     10.493674     12.500212
Ag     12.500030     12.499977     16.679489
Ag     10.499923      6.438716     12.500333
Ag     12.500099     12.499884     12.499905
Ag     14.506444     14.506229     12.500040
Ag     12.499994      8.458276     12.500452
Ag     14.506309     10.493767     12.500031
Ag     14.504977     10.495162      8.333698
Ag     14.500078      6.438740     12.500493
Ag     12.500131     12.500158      8.320549
Ag     10.500021     18.561208     12.499715
Ag     12.499951      8.473858     16.622074
Ag     16.541721     12.500029     12.500182
Ag     16.526488     12.499892      8.377958
Ag     12.499946     16.526158     16.621096
Ag     16.526262     12.500082     16.622437
Ag     10.493633     14.506247     12.499612
Ag      8.473807     12.499998      8.377680
Ag     10.495104     10.495170     16.666771
Ag     10.495289     14.504792      8.333094
Ag      6.438870     14.499675     12.499613
Ag     12.500022     16.526039      8.377932
Ag     14.505021     14.504744     16.666443
Ag     14.500075     18.561127     12.499698
Ag     14.504758     10.495147     16.667060
Ag     18.561061     10.500408     12.500419
Ag     16.519324      8.480759     12.500445
Ag     10.495146     10.495209      8.333405
Ag      8.480419     16.519408     12.499664
Ag      8.480661      8.480613     12.500191
Ag     14.505006     14.504718      8.333292
Ag     12.499982      8.473802      8.378944
Ag      8.458347     12.500135     12.499961
Pt     14.471746     12.500121     14.586279
Pt     16.485330     14.505455     10.422492
Pt     18.549016     12.500008     10.422303
Pt      8.514843     10.494379     14.577574
Pt      6.450979     12.500022     10.421767
Pt     12.499923     14.494684     18.778218
Pt     14.494714     12.500060      6.221277
Pt     14.494402     12.499954     18.779239
Pt     12.499892     10.528491     14.586417
Pt     12.499953      6.451000     10.422793
Pt     12.500253     14.471471     14.585789
Pt     10.494070     16.485032     10.422382
Pt     18.549011     12.500044     14.578346
Pt     10.494182     16.485115     14.576998
Pt     10.528577     12.499762     14.586070
Pt     10.505363     12.499912     18.778536
Pt     14.505974     16.485175     10.422496
Pt      6.450787     12.500057     14.577503
Pt     14.505843      8.514935     14.577738
Pt     12.499946     18.548973     10.421967
Pt     14.505914      8.514902     10.423111
Pt     10.494164      8.514940     10.422945
Pt     12.500032     14.494386      6.220872
Pt     12.499865     14.471445     10.413901
Pt     16.485120     14.505564     14.577547
Pt     12.499911     18.548984     14.577224
Pt     12.500063     10.505672     18.779233
Pt     16.485299     10.494441     14.577960
Pt     14.471498     12.499881     10.413927
Pt     10.494060      8.515061     14.577514
Pt      8.514683     14.505469     14.577200
Pt     12.499935     10.505414      6.221424
Pt     10.505420     12.500074      6.220973
Pt     12.500204     10.528590     10.414206
Pt     12.499915      6.451053     14.578231
Pt      8.514769     10.494463     10.422426
Pt      8.514927     14.505537     10.422251
Pt     16.485171     10.494309     10.422722
Pt     14.505942     16.485049     14.577054
Pt     10.528611     12.500282     10.413870
201

Ag     20.249213      4.465073     -4.246624
Pt     25.445386     -4.407396     -5.143718
Ag     24.814364     -9.150023     -3.729227
Ag     14.671267     -3.407748     -9.815186
Ag     20.607439     -7.595401    -12.224157
Pt     24.653976     -3.116534    -10.009425
Ag     23.133765     -8.472758    -11.210875
Pt     18.744946      1.027858     -7.620537
Pt     18.869036     -3.046968     -3.399910
Ag     20.364962      0.366990     -0.137134
Ag     22.262874     -5.256428      2.401525
Ag     24.619649     -1.053429    -11.980923
Pt     19.646333     -4.295918      1.456407
Ag     28.106891     -7.403610     -2.077866
Ag     24.086795    -11.868243     -4.326646
Pt     19.795297     -5.263421     -7.791931
Ag     20.587413     -4.546292     -5.070947
Pt     23.974492     -9.744718     -6.370428
Ag     19.015140     -9.022613      2.688576
Ag     23.940022     -3.781429    -12.717881
Ag     21.524723     -6.821246     -9.465082
Ag     21.239419     -1.873584     -4.496804
Ag     15.391516      2.271716     -2.154945
Ag     20.482656     -0.593083     -9.206098
Ag     16.485465     -8.117977      1.779590
Ag     16.439782     -4.990787    -11.513276
Ag     13.948189     -8.077621     -8.342645
Ag     23.099501     -6.424993    -13.179551
Ag     23.961214     -7.779738     -8.406777
Ag     19.649043     -2.260297     -0.729818
Ag     19.384540      3.745803     -6.918296
Ag     28.766607     -2.658158     -3.491029
Ag     16.551386    -11.000263     -5.305908
Ag     16.368545     -4.055633     -2.318314
Ag     14.629096      1.654580     -4.838754
Pt     22.992860     -7.504625     -1.995668
Pt     19.815565     -9.203728     -3.629260
Ag     25.276659      2.585470     -2.191900
Ag     20.366769      1.513866    -11.253176
Ag     16.552157     -8.946629     -7.312078
Ag     20.642686     -8.579964     -0.970471
Ag     13.984713     -7.105824      0.647406
Ag     18.025042     -3.611226     -6.099611
Ag     13.113241     -5.748630     -4.028334
Ag     17.204558     -5.330823      2.475654
Ag     16.349744     -0.037223     -6.523021
Ag     26.316235     -3.685857     -2.495571
Ag     27.342164    -10.074041     -2.650888
Ag     26.346695     -5.777000     -0.362031
Ag     19.813417     -7.280262     -5.689886
Ag     20.824350    -13.542053     -5.916323
Ag     22.845365      3.505397     -3.178404
Pt     22.348010    -10.143676     -2.647279
Pt     19.085098     -7.929057     -8.454143
Ag     21.335964     -2.862714    -13.633300
Pt     20.520928     -6.501560     -3.028424
Pt     24.562227     -2.104247     -0.772656
Ag     24.532224     -0.200743     -2.886451
Ag     23.815289     -2.773485     -3.434525
Ag     23.863796     -6.813060      0.600967
Ag     20.579615     -5.550098    -14.168255
Ag     27.262904     -4.044976     -8.846088
Ag     16.241221      2.061068     -8.568905
Ag     22.932057     -0.464734      0.912299
Ag     21.496822     -7.959121      1.711431
Ag     18.079273     -6.642456    -13.129164
Ag     28.694479     -0.686905     -5.494844
Ag     22.091715     -0.148275    -12.901400
Ag     14.585219     -0.359325     -2.835660
Ag     24.837969    -11.169972     -1.639055
Ag     15.656928     -8.833274     -0.923658
Pt     21.262769     -3.931164     -2.384491
Pt     16.374041     -6.022754     -0.196263
Ag     25.428501     -2.374777     -7.215405
Ag     17.924143      1.372792     -1.138393
Ag     22.937086      0.598350    -10.298561
Ag     28.064039     -5.337708     -4.136054
Ag     14.057689    -10.085687     -6.330849
Ag     19.849745    -11.257610     -1.581006
Ag     20.709012    -10.607394      1.114295
Ag     22.189225     -4.206247     -8.892658
Ag     26.216474      0.248602     -6.534530
Ag     25.386149     -1.433500      1.813008
Pt     19.580338     -0.305713     -2.795504
Ag     27.261516     -8.038825     -4.759964
Pt     22.218676     -2.206296    -10.999538
Ag     15.678985     -6.672381     -2.984363
Ag     15.632563     -7.668916    -12.098892
Ag     13.804938      0.949692     -7.532909
Ag     12.963586     -1.733619     -8.159303
Ag     13.848984     -3.140863     -3.453216
Pt     14.871884     -7.420059     -5.624772
Ag     25.487720     -0.382244     -9.285901
Ag     19.478131      1.763511     -4.831633
Ag     15.496948     -1.775614      1.963157
Ag     13.828062     -1.030855     -5.463361
Ag     25.595722     -8.427003     -1.043810
Ag     17.066995      2.672044     -5.928434
Ag     25.440307      0.520301     -0.149772
Pt     21.452796     -4.809729    -11.622432
Ag     14.584997     -2.395586     -0.688871
Ag     22.425624    -12.244108     -0.658537
Ag     25.520769     -6.419855     -3.059714
Pt     22.973524     -3.529795     -6.225457
Pt     17.261591     -4.280264     -8.843975
Ag     15.471176     -0.645195     -9.162408
Ag     14.831809     -5.379029     -7.768317
Ag     26.390600     -4.668490    -11.602628
Ag     12.284423     -6.474709     -6.781982
Ag     18.851484     -3.912858    -12.538923
Pt     21.445857     -8.764216     -7.448011
Ag     21.383712     -5.927606     -0.310467
Ag     20.692428     -9.529694    -10.102484
Ag     27.128613     -1.985959    -10.872776
Ag     25.598901     -7.408977    -12.162730
Ag     12.314168     -4.481036     -8.757579
Pt     17.091018      0.652632     -3.755781
Pt     16.498461     -7.026463     -9.413227
Ag     23.660983      1.247994     -7.551374
Ag     18.695438      3.069847     -9.581555
Ag     13.988204     -6.165049    -10.415564
Pt     23.709679     -0.886645     -5.617229
Ag     24.707896     -4.108633      1.240337
Pt     18.134433     -5.665438     -4.009821
Ag     18.244681    -10.624763     -9.077663
Ag     17.220246     -2.283346    -10.850957
Ag     20.699700    -11.584922     -8.028052
Pt     21.293454      0.121793     -6.605088
Ag     24.674912     -5.078948     -7.869841
Ag     17.754188      3.419887     -3.247438
Ag     22.026098      0.736066     -3.821898
Ag     17.997984     -2.686558      3.021964
Ag     27.221922     -6.086680     -6.804768
Ag     13.164199     -7.807377     -2.025338
Ag     19.581161     -1.163015    -11.998923
Ag     20.464809     -1.512056      2.025574
Pt     26.299851     -1.698727     -4.573972
Ag     25.683501     -9.482792    -10.097363
Ag     23.026420     -5.477941     -4.052212
Ag     22.885011      1.482084     -1.118471
Ag     17.947649      0.380310    -10.187966
Ag     19.706120     -6.351064      3.418122
Ag     21.171498      2.137936     -8.534908
Pt     16.353265     -2.097953     -4.426926
Ag     21.586112    -10.870334     -5.365001
Pt     22.286818     -6.115056     -6.823684
Ag     18.262605    -12.638787     -6.932068
Ag     19.772446     -3.253520     -9.933826
Ag     20.514535     -3.579275      3.967104
Pt     17.404696     -8.332925     -4.648270
Pt     22.074963     -1.249496     -1.774068
Ag     15.818197    -11.674611     -7.961076
Ag     14.709609     -4.397596      1.335912
Ag     20.317511      2.475608     -2.138858
Ag     22.994295     -2.555994      2.924665
Ag     26.450502    -10.799899     -5.333056
Ag     27.940673     -3.321491     -6.127525
Ag     15.595840     -2.691941     -7.083080
Ag     24.480814      1.884756     -4.901669
Ag     17.246454     -6.349646     -6.749374
Pt     20.530228     -2.640509     -7.199721
Ag     17.376838    -10.304751     -2.634757
Ag     22.113345     -3.176425      0.266022
Pt     15.607786     -4.745637     -5.013966
Ag     13.042756     -3.760213     -6.119936
Ag     18.790604     -0.917018     -5.502674
Ag     27.951710     -1.330811     -8.248519
Ag     26.491978     -6.709208     -9.529797
Ag     26.435500     -8.699386     -7.402666
Ag     27.131549     -1.081088     -1.842404
Ag     12.413980     -8.460526     -4.692644
Ag     28.822951     -4.643801     -1.409312
Ag     23.201248    -10.521242     -8.998500
Ag     18.171715     -8.601850    -11.107438
Ag     14.864644     -9.371604     -3.636209
Ag     22.976022     -1.539265     -8.281995
Ag     22.297365     -8.208246     -4.683961
Ag     17.157432     -1.358711     -1.746005
Ag     18.931009     -5.896984    -10.476757
Ag     18.099159     -7.684437     -1.956126
Ag     22.010350      2.824518     -5.897472
Pt     18.900512     -6.982801      0.762013
Pt     24.684899     -7.034817     -5.788534
Ag     19.100949    -11.939468     -4.253509
Ag     23.134556     -9.547639      0.069071
Ag     15.677974     -9.632178    -10.047180
Ag     15.436978      0.285135     -0.159844
Pt     17.110094     -3.436418      0.444733
Ag     25.638797    -11.453351     -8.021282
Ag     19.065395     -9.944465     -6.317375
Ag     21.654963    -12.899697     -3.324763
Ag     17.887071     -0.576130      0.941533
Pt     18.046842     -1.647780     -8.156488
Ag     18.822464     -4.972902     -1.312109
Ag     27.052460      0.959494     -3.880720
Ag     23.245172    -12.475542     -6.955842
Ag     13.849491     -5.055371     -1.285531
Pt     23.794878     -4.817211     -1.379673
Pt     23.919904     -5.760650    -10.661877
Ag     27.158477     -3.008237      0.251692
Ag     18.164202     -9.770764      0.139997
