13

Cl      0.000000      0.000000      0.995000
Cl      0.000000      0.000000     -0.995000
AR     -2.980242     -1.392030     -2.916895
AR      2.441624     -2.614941      0.136670
AR     -2.244848      2.404216     -2.916907
AR     -3.512334      0.680409      0.136669
AR      1.592850      2.877917     -2.916887
AR      3.229283     -0.625567     -2.916908
AR      3.241478      1.514025      0.136671
AR     -0.000000     -0.000000     -4.526684
AR     -0.438298      3.550682      0.136671
AR      0.402957     -3.264539     -2.916893
AR     -1.732470     -3.130176      0.136673
13

AR     -0.772431      2.235663      3.675387
AR     -3.876598      0.918801      1.787281
AR     -1.767038     -1.187345      4.007575
Cl     -0.370813     -0.314789      0.903083
AR      0.304783     -3.765567      2.298633
AR      2.350829      2.251664      1.572718
AR     -0.375404     -3.341869     -1.383073
AR     -3.244106     -2.821839      0.941746
AR      1.771693     -0.603628      3.943137
AR     -3.167821     -0.184905     -1.664640
Cl      0.360923      0.257989     -0.843022
AR     -1.488541      3.199809      0.186559
AR      3.039491     -1.799297      0.677287
