22

Zn    0.612466     4.010199     2.224770
Zn    2.446731    -0.912869     0.942598
Zn    1.086837    -1.912922    -1.716926
Zn    0.013476     0.028304    -0.032598
Zn   -1.715230    -2.135541    -0.465410
Zn    1.215161     0.308048    -4.051502
Zn   -1.382208    -0.837830    -3.102622
Zn   -1.302248     1.770524     1.751438
Zn   -2.472853     0.887853    -0.905917
Zn   -0.325008    -0.883816     1.688632
Zn    1.908235     2.036976     0.405972
Zn    1.714932     2.885823    -2.573510
Zn   -1.100319     2.168079    -3.426471
Zn   -3.184672    -0.578384     1.671575
Zn    1.288651     0.990492     3.107060
Zn   -1.694986    -3.069360     2.768325
Zn    0.726066    -3.414911     0.869077
Zn    1.208451    -2.099034     3.683535
Zn   -1.356526    -0.267547     4.214593
Zn    0.318270     0.830280    -1.599585
Zn    3.094330     0.309574    -1.709326
Zn   -0.596774     3.299239    -0.647728
22

Zn     3.070822     1.659007    -0.599649
Zn     2.395546     0.920331    -3.639444
Zn    -2.337367     1.197212     1.004217
Zn    -0.396133    -2.596961    -0.794888
Zn    -0.353965     1.274032     3.269926
Zn     1.259418     3.527806    -2.303058
Zn     2.052716     0.367714     1.847094
Zn    -2.188323    -0.145461    -1.721567
Zn     0.030286    -0.041611     0.017972
Zn    -0.569257     1.695311    -4.081842
Zn     0.173287    -1.195308    -3.409266
Zn    -0.454767    -0.936376     1.564625
Zn    -1.677180     2.817535    -1.440042
Zn    -1.042837    -3.448733     2.220912
Zn     2.194312    -1.217489    -1.276061
Zn     0.482011     0.996147    -1.564177
Zn     0.577165    -1.515237     3.958888
Zn     1.813690    -2.597171     1.372033
Zn    -2.363457    -1.012140     3.399091
Zn    -2.936053    -1.786043     0.597927
Zn     4.425016    -0.923635     0.703571
Zn     0.490975     2.683943     0.703452
