86

Li    -1.041620    -0.239515    -0.771233
Li     1.047154     1.017386    -2.147651
Li    -1.182705    -2.116579     0.943443
Li     0.972609    -0.272647     1.126127
Li     1.723327    -1.907692     0.453986
Li     2.602958     0.165596     0.207879
Li     1.653930    -1.384807    -0.552818
Li    -2.594832    -0.617220     0.104183
Li    -1.361032     2.295660    -0.231554
Li     1.455161    -0.364557     2.087858
Li    -0.619405     0.489856     1.883418
Li     0.762392     2.468408     0.410441
Li     1.302232     0.651362     1.608060
Li    -0.142067    -1.834099    -1.816450
Li     0.231216     0.301829    -2.424558
Li    -2.047108     0.182289    -0.556259
Li    -0.717905     1.599844     1.771676
Li     0.753907    -1.285772    -2.226647
Li     1.178482     1.514432    -0.009681
Li    -0.248742    -1.849729     0.383172
Li    -0.941852    -1.077513     0.804091
Li    -0.182473     2.384196    -0.187257
Li    -0.894870    -1.225713    -0.289351
Li     1.219620     1.353228    -1.108298
Li    -0.463536    -0.600636     1.700066
Li     2.179756    -0.878095     0.328904
Li    -1.868340    -0.971412    -0.767486
Li     2.096953    -0.336271    -0.679552
Li     0.680556    -1.426326    -1.140001
Li    -1.966635    -0.712493     1.096631
Li     0.323678     1.760728    -1.622997
Li     0.585555    -1.036373     1.806165
Li     1.598906    -1.145878     1.281546
Li    -0.771126     2.106893     0.770708
Li     0.720766    -1.815121     0.982699
Li     0.766188    -1.968364    -0.139297
Li    -1.144020    -1.721403    -1.224299
Li    -0.675603     1.850030    -1.092484
Li    -0.493502     0.024942    -1.673250
Li    -1.173471     0.508890     0.027397
Li     1.927661     0.768276    -0.465683
Li     0.868480     0.565373    -0.450139
Li     1.881530     0.919809     0.659870
Li     0.414862     0.066760     2.008348
Li     1.552792    -0.842308    -1.547594
Li    -2.089874     0.334483     0.605628
Li    -0.522471     1.088894    -1.924532
Li    -1.601243     1.237426    -0.677389
Li     1.122307     1.651302     1.098301
Li    -0.617418     0.766873    -0.886852
Li     0.168975     2.190110     1.375412
Li     2.043836    -0.097118     1.157712
Li     0.820462     0.712347     0.641773
Li    -1.642555     1.390338     0.483878
Li    -1.586936     0.852253     1.475887
Li    -0.193558    -1.984683    -0.719455
Li    -1.830624    -1.505044     0.263054
Li     0.809128     2.318073    -0.712170
Li     0.533252    -0.400827    -1.626374
Li     0.171988    -1.073117    -0.255005
Li    -1.319730    -1.317984     1.782255
Li     0.027459    -0.087847    -0.731989
Li     1.104784    -1.033445     0.320451
Li    -1.487415    -0.211893     1.981538
Li     1.538852    -0.011059     0.199654
Li     1.029082    -0.505820    -0.661853
Li    -0.336258    -0.970661    -1.203126
Li     0.125716    -0.924775     0.833808
Li     0.227331     1.423649    -0.594458
Li    -0.035952     0.143630     1.030872
Li    -1.550554    -0.481004     0.139417
Li    -0.724816     1.468454    -0.085411
Li     0.514828    -0.187233     0.193393
Li     0.179897     1.568470     0.497720
Li     0.250304     1.080530     1.504214
Li    -0.293721    -1.685053     1.487546
Li    -1.287141    -0.725712    -1.714454
Li     0.355126     0.682138    -1.392650
Li    -1.103998    -0.005339     1.001434
Li    -0.260443    -0.825592    -2.292879
Li    -1.134309    -2.266373    -0.180623
Li    -0.679075     0.996875     0.885400
Li    -0.097177     0.638748     0.055411
Li    -0.511282    -0.337455     0.168983
Li    -1.479373     0.462377    -1.490262
Li     1.392772     0.265796    -1.356390
86

Li    -0.893024     0.136316     1.681131
Li    -0.143289     1.614802    -1.824775
Li     0.033201    -2.684523    -0.238281
Li     1.233264     1.828577    -0.420033
Li     1.176679    -2.110728    -0.633247
Li     0.472856    -0.972460    -1.033691
Li     1.418409     0.417554     1.527941
Li    -0.568214     2.175662     0.224926
Li    -1.075332    -0.197334    -2.095451
Li     0.465871     0.639949    -1.665366
Li     1.159679    -1.973293     0.645912
Li     0.009233     0.650024     0.997882
Li    -1.436666    -1.564595     0.467938
Li    -1.736398     0.539923    -1.691689
Li    -0.841105    -1.907825    -0.108070
Li     0.346373    -0.312440    -2.545703
Li     0.171076     0.821388    -0.738516
Li     0.033302    -1.976287    -1.149904
Li     0.288098     2.442449     0.126485
Li     0.101263     1.801143     1.326765
Li     0.049153     2.009043    -0.656256
Li    -1.217677     1.488717    -1.800425
Li    -0.886047     1.460529    -0.706107
Li     0.025842    -0.689393     2.310044
Li     0.226395     0.165356     1.828470
Li    -0.366689     0.069261    -0.390477
Li    -1.116769    -0.524532     0.894076
Li    -1.247842    -0.373804    -1.269077
Li     1.644270    -0.429527    -0.862781
Li    -0.195746    -0.179186    -1.382628
Li    -0.367232    -0.614748     1.379388
Li     1.933928    -1.287686    -0.710744
Li    -1.336933    -0.583798     0.100707
Li    -0.011494    -2.072108     0.915342
Li     1.162792     0.051088     0.230429
Li     0.133989    -1.730687     1.967716
Li     1.840188     0.382948     0.629994
Li     0.351120    -0.489886     0.067522
Li    -1.867739    -0.741039    -1.667931
Li     1.998717     1.375099    -0.862023
Li     2.370998    -0.589959    -0.042097
Li    -1.848103    -0.069511     1.555481
Li     0.996170     1.398645    -1.216693
Li     0.883856     1.374018     1.584435
Li    -2.232040     1.129455     0.970165
Li    -2.241925     0.441972    -0.221716
Li    -0.391499    -1.080629     0.534040
Li    -1.226344     0.260353     0.355042
Li     1.311458     0.595864    -1.397834
Li    -0.625972     0.431841    -1.368250
Li     0.423802     0.011542     0.836131
Li    -0.782551    -1.338447    -1.712881
Li    -1.533070     1.534805     0.208857
Li    -0.339365    -0.991078    -0.666789
Li    -0.289447     0.067160     0.431889
Li    -1.100016    -0.674695     2.273391
Li     2.020081    -1.538180     0.617892
Li     0.848970    -0.554644    -1.706956
Li    -0.940547     1.366367     1.030964
Li    -1.937089     1.153579    -0.878654
Li    -0.827771    -1.727698     1.414217
Li    -1.522145     1.005278     1.976678
Li     0.869197    -0.716222     1.777959
Li     0.679410    -1.205644     0.995645
Li     2.131978     0.606695    -0.546291
Li     1.675049     1.249514     1.574998
Li    -2.002654    -0.319199    -0.698235
Li     1.861614     1.327225     0.129904
Li     0.197928    -1.650504    -0.276064
Li     0.760153     0.019695    -0.846323
Li     0.290300     0.467507    -0.026533
Li     0.990310     0.992776     0.895359
Li     1.446013    -0.620568     0.883468
Li     1.117360     1.028937    -0.153441
Li    -2.240769    -0.477758     0.546483
Li    -1.571620    -1.235281    -0.901052
Li     1.082551     1.741487     0.737670
Li    -0.603202     0.924385    -0.045633
Li    -0.493976     0.634322    -2.524738
Li    -0.599219     1.390283     1.935546
Li     0.164216     1.441558     0.016754
Li     1.246768    -1.459033    -1.403215
Li     1.102415    -1.484857     1.450488
Li     1.371398    -1.072318     0.025076
Li     0.494014    -1.051301    -2.128075
Li    -1.552575     0.322470    -0.696104
