405

Pd     11.944764     11.944741      5.853971
Pd     14.000013      9.901812      5.847927
Pd     16.055269     11.944730      5.853974
Pd      9.901822     13.999995      5.847915
Pd     11.944773     16.055235      5.853997
Pd     14.000031     13.999982      5.873668
Pd     16.055269     16.055257      5.853973
Pd     18.098183     13.999993      5.847928
Pd     14.000008     18.098192      5.847908
Pd     11.944190      7.875372      9.917834
Pd     14.000020      5.811033      9.923113
Pd     16.055857      7.875351      9.917809
Pd      7.875346     11.944153      9.917827
Pd      9.904535      9.904528      9.916265
Pd     11.964254     11.964219      9.916364
Pd     14.000048      9.909185      9.931435
Pd     16.035801     11.964214      9.916338
Pd     18.095475      9.904510      9.916236
Pd     20.124611     11.944156      9.917810
Pd      5.811003     13.999999      9.923083
Pd      7.875307     16.055840      9.917834
Pd      9.909177     13.999976      9.931469
Pd     11.964255     16.035770      9.916415
Pd     14.000029     14.000000      9.896535
Pd     16.035799     16.035771      9.916357
Pd     18.090810     13.999982      9.931428
Pd     20.124619     16.055824      9.917819
Pd     22.188926     13.999988      9.923091
Pd      9.904516     18.095494      9.916259
Pd     11.944180     20.124692      9.917835
Pd     14.000055     18.090844      9.931461
Pd     16.055856     20.124670      9.917808
Pd     18.095472     18.095486      9.916249
Pd     14.000024     22.189002      9.923102
Pd      7.887607      7.887632     13.999994
Pd      9.931862      5.820712     13.999993
Pd     11.970205      7.895404     13.999992
Pd     14.000044      5.824589     13.999991
Pd     16.029886      7.895386     13.999996
Pd     18.068161      5.820688     13.999975
Pd     20.112288      7.887654     13.999990
Pd      5.820614      9.931725     13.999993
Pd      7.895343     11.970117     13.999991
Pd      9.923812      9.923767     13.999989
Pd     11.972158     11.972056     13.999984
Pd     14.000073      9.930200     13.999989
Pd     16.027946     11.972080     14.000001
Pd     18.076211      9.923775     14.000001
Pd     20.104581     11.970115     14.000005
Pd     22.179242      9.931827     13.999991
Pd      5.824500     13.999990     13.999995
Pd      7.895291     16.029889     14.000000
Pd      9.930182     13.999982     13.999991
Pd     11.972131     16.027926     14.000004
Pd     14.000067     13.999981     14.000003
Pd     16.027967     16.027885     14.000022
Pd     18.069792     13.999964     14.000012
Pd     20.104573     16.029830     14.000009
Pd     22.175331     13.999971     14.000000
Pd      5.820575     18.068310     13.999989
Pd      7.887506     20.112494     13.999982
Pd      9.923740     18.076286     14.000006
Pd     11.970139     20.104719     13.999999
Pd     14.000059     18.069850     14.000014
Pd     16.029890     20.104661     14.000012
Pd     18.076220     18.076210     14.000023
Pd     20.112312     20.112356     14.000011
Pd     22.179268     18.068109     14.000004
Pd      9.931697     22.179403     13.999991
Pd     14.000023     22.175501     13.999993
Pd     18.068224     22.179359     14.000002
Pd     11.944196      7.875353     18.082146
Pd     14.000021      5.811030     18.076875
Pd     16.055858      7.875338     18.082187
Pd      7.875331     11.944152     18.082158
Pd      9.904533      9.904523     18.083702
Pd     11.964264     11.964214     18.083620
Pd     14.000059      9.909165     18.068546
Pd     16.035815     11.964205     18.083676
Pd     18.095483      9.904506     18.083779
Pd     20.124635     11.944148     18.082217
Pd      5.810982     13.999993     18.076880
Pd      7.875295     16.055836     18.082164
Pd      9.909171     13.999970     18.068515
Pd     11.964258     16.035768     18.083594
Pd     14.000036     13.999991     18.103493
Pd     16.035816     16.035775     18.083678
Pd     18.090834     13.999975     18.068601
Pd     20.124639     16.055827     18.082219
Pd     22.188948     13.999987     18.076930
Pd      9.904506     18.095507     18.083737
Pd     11.944162     20.124713     18.082173
Pd     14.000056     18.090862     18.068554
Pd     16.055862     20.124687     18.082206
Pd     18.095497     18.095499     18.083785
Pd     13.999989     22.189018     18.076905
Pd     11.944757     11.944729     22.146001
Pd     14.000011      9.901789     22.152062
Pd     16.055286     11.944712     22.146050
Pd     11.944771     16.055233     22.145982
Pd     14.000044     13.999981     22.126326
Pd     16.055272     16.055288     22.145986
Pd     18.098199     13.999988     22.152132
Pd     14.000013     18.098196     22.152086
Pd      9.901810     14.000002     22.152067
Ag     14.000016      5.851287      5.853637
Ag     14.000021      7.924025      3.877364
Ag     16.067207      7.853071      5.829617
Ag      7.853088     11.932811      5.829568
Ag      9.893956      9.893933      5.825461
Ag      9.950221     11.981266      3.859966
Ag     11.981294      9.950191      3.859975
Ag     14.000035     11.979224      3.878904
Ag     16.018756      9.950167      3.860004
Ag     18.106085      9.893906      5.825464
Ag     18.049812     11.981239      3.860011
Ag     20.146903     11.932797      5.829607
Ag      5.851196     13.999978      5.853521
Ag      7.924016     13.999989      3.877328
Ag      7.853097     16.067144      5.829623
Ag      9.950208     16.018722      3.859997
Ag     11.979281     13.999983      3.878902
Ag     14.000035     16.020744      3.878912
Ag     16.020784     13.999984      3.878914
Ag     18.049815     16.018725      3.859997
Ag     20.075937     13.999978      3.877339
Ag     20.146910     16.067170      5.829585
Ag     22.148700     13.999978      5.853648
Ag      9.893986     18.106015      5.825542
Ag     11.981274     18.049788      3.859987
Ag     11.932855     20.146893      5.829620
Ag     14.000016     20.075959      3.877294
Ag     16.018754     18.049807      3.859982
Ag     16.067178     20.146910      5.829603
Ag     18.106086     18.106071      5.825430
Ag     14.000014     22.148761      5.853490
Ag     11.973930      3.819288      9.926749
Ag     13.999980      3.870460      7.906662
Ag     16.026090      3.819282      9.926694
Ag      7.864305      7.864289      9.898058
Ag      9.897153      5.817523      9.891827
Ag      9.907230      7.869884      7.886046
Ag     11.939561      5.839768      7.880708
Ag     14.000033      7.880176      7.941964
Ag     16.060465      5.839727      7.880684
Ag     18.102875      5.817482      9.891824
Ag     18.092816      7.869843      7.886036
Ag     20.135693      7.864267      9.898046
Ag      3.819274     11.973885      9.926685
Ag      5.817491      9.897084      9.891801
Ag      5.839746     11.939516      7.880632
Ag      7.869894      9.907185      7.886028
Ag      9.922268     11.960264      7.918227
Ag     11.960306      9.922253      7.918248
Ag     14.000042     11.955036      7.888212
Ag     16.039760      9.922236      7.918240
Ag     18.077751     11.960250      7.918246
Ag     20.130124      9.907180      7.886043
Ag     22.182443      9.897122      9.891846
Ag     22.160227     11.939540      7.880690
Ag     24.180666     11.973883      9.926721
Ag      3.870465     13.999976      7.906575
Ag      3.819262     16.026089      9.926673
Ag      5.839707     16.060466      7.880614
Ag      7.880163     13.999976      7.941932
Ag      9.922270     16.039693      7.918265
Ag     11.955087     13.999977      7.888210
Ag     14.000045     16.044938      7.888202
Ag     16.044973     13.999981      7.888201
Ag     18.077755     16.039716      7.918242
Ag     20.119798     13.999979      7.941951
Ag     22.160236     16.060417      7.880681
Ag     24.129564     13.999972      7.906710
Ag     24.180676     16.026070      9.926719
Ag      5.817440     18.102910      9.891789
Ag      7.869844     18.092819      7.886015
Ag      7.864247     20.135752      9.898050
Ag      9.907184     20.130152      7.886029
Ag     11.960319     18.077739      7.918266
Ag     14.000031     20.119856      7.941932
Ag     16.039757     18.077745      7.918231
Ag     18.092822     20.130130      7.885996
Ag     20.130125     18.092780      7.886014
Ag     20.135704     20.135699      9.898034
Ag     22.182461     18.102841      9.891832
Ag      9.897107     22.182558      9.891803
Ag     11.939545     22.160274      7.880638
Ag     11.973927     24.180757      9.926666
Ag     14.000011     24.129488      7.906554
Ag     16.060495     22.160283      7.880605
Ag     16.026121     24.180738      9.926661
Ag     18.102912     22.182506      9.891775
Ag      7.955441      3.860838     13.999996
Ag      9.928830      3.829190     11.956117
Ag     11.972912      3.778895     13.999993
Ag     14.000049      3.789542     11.976870
Ag     16.027181      3.778893     13.999997
Ag     18.071162      3.829137     11.956081
Ag     20.044694      3.860807     13.999985
Ag      3.860595      7.955334     13.999997
Ag      5.880407      5.880429     14.000005
Ag      5.847845      7.880085     11.953335
Ag      7.880150      5.847901     11.953330
Ag      9.932449      7.891762     11.986404
Ag     11.975412      5.857713     11.977099
Ag     14.000067      7.892962     11.954988
Ag     16.024689      5.857692     11.977090
Ag     18.067579      7.891780     11.986390
Ag     20.119782      5.847874     11.953342
Ag     22.119414      5.880463     14.000000
Ag     22.152058      7.880136     11.953330
Ag     24.139032      7.955419     14.000006
Ag      3.829128      9.928739     11.956080
Ag      3.778826     11.972783     13.999993
Ag      5.857666     11.975313     11.977091
Ag      7.891766      9.932378     11.986404
Ag      9.929719     11.965854     11.956336
Ag     11.965952      9.929672     11.956325
Ag     14.000071     11.970156     11.955330
Ag     16.034157      9.929671     11.956329
Ag     18.070330     11.965855     11.956324
Ag     20.108201      9.932404     11.986398
Ag     22.142254     11.975325     11.977084
Ag     24.170831      9.928779     11.956110
Ag     24.220991     11.972821     13.999988
Ag      3.789489     13.999982     11.976852
Ag      3.778802     16.027183     13.999996
Ag      5.857641     16.024664     11.977099
Ag      7.892938     13.999982     11.954988
Ag      9.929697     16.034116     11.956337
Ag     11.970245     13.999979     11.955350
Ag     14.000068     16.029806     11.955363
Ag     16.029865     13.999969     11.955336
Ag     18.070330     16.034083     11.956331
Ag     20.107015     13.999967     11.954994
Ag     22.142274     16.024618     11.977087
Ag     24.210397     13.999966     11.976871
Ag     24.221021     16.027104     13.999992
Ag      3.829092     18.071241     11.956079
Ag      3.860568     20.044730     13.999995
Ag      5.847732     20.119967     11.953316
Ag      7.891692     18.067649     11.986412
Ag      9.932370     20.108312     11.986410
Ag     11.965920     18.070331     11.956344
Ag     14.000039     20.107074     11.954997
Ag     16.034165     18.070315     11.956345
Ag     18.067607     20.108236     11.986396
Ag     20.108212     18.067547     11.986410
Ag     22.152049     20.119800     11.953331
Ag     24.170851     18.071174     11.956106
Ag     24.139027     20.044528     14.000000
Ag      5.880267     22.119696     13.999987
Ag      7.880030     22.152225     11.953307
Ag      7.955300     24.139395     13.999994
Ag      9.928755     24.170903     11.956081
Ag     11.975350     22.142381     11.977085
Ag     11.972841     24.221191     13.999982
Ag     14.000038     24.210533     11.976840
Ag     16.024700     22.142333     11.977089
Ag     16.027218     24.221172     13.999983
Ag     18.071238     24.170863     11.956062
Ag     20.119872     22.152129     11.953324
Ag     20.044587     24.139322     13.999997
Ag     22.119485     22.119562     13.999994
Ag      9.928833      3.829188     16.043878
Ag     11.973953      3.819283     18.073278
Ag     14.000044      3.789524     16.023127
Ag     16.026099      3.819269     18.073295
Ag     18.071198      3.829176     16.043900
Ag      5.847844      7.880091     16.046661
Ag      7.880156      5.847905     16.046665
Ag      7.864305      7.864292     18.101933
Ag      9.897156      5.817510     18.108171
Ag      9.932451      7.891755     16.013578
Ag     11.975407      5.857696     16.022891
Ag     14.000064      7.892957     16.044992
Ag     16.024679      5.857700     16.022905
Ag     18.102885      5.817487     18.108189
Ag     18.067589      7.891758     16.013604
Ag     20.119814      5.847903     16.046658
Ag     20.135693      7.864279     18.101970
Ag     22.152019      7.880175     16.046654
Ag      3.829126      9.928743     16.043913
Ag      3.819265     11.973888     18.073324
Ag      5.817482      9.897089     18.108201
Ag      5.857653     11.975301     16.022888
Ag      7.891757      9.932377     16.013578
Ag      9.929713     11.965854     16.043639
Ag     11.965957      9.929663     16.043646
Ag     14.000077     11.970157     16.044666
Ag     16.034164      9.929657     16.043664
Ag     18.070340     11.965859     16.043689
Ag     20.108199      9.932414     16.013603
Ag     22.182461      9.897119     18.108174
Ag     22.142267     11.975318     16.022913
Ag     24.170827      9.928783     16.043878
Ag     24.180679     11.973890     18.073282
Ag      3.789462     13.999981     16.023134
Ag      3.819246     16.026078     18.073334
Ag      5.857622     16.024672     16.022894
Ag      7.892940     13.999980     16.044991
Ag      9.929689     16.034115     16.043663
Ag     11.970252     13.999973     16.044646
Ag     14.000072     16.029804     16.044676
Ag     16.029864     13.999968     16.044703
Ag     18.070347     16.034085     16.043710
Ag     20.107030     13.999958     16.045034
Ag     22.142272     16.024620     16.022919
Ag     24.210399     13.999972     16.023114
Ag     24.180683     16.026061     18.073277
Ag      3.829084     18.071238     16.043922
Ag      5.817426     18.102912     18.108196
Ag      5.847792     20.119931     16.046619
Ag      7.891693     18.067640     16.013599
Ag      7.864232     20.135761     18.101948
Ag      9.932364     20.108324     16.013589
Ag     11.965917     18.070347     16.043671
Ag     14.000040     20.107086     16.045017
Ag     16.034172     18.070326     16.043690
Ag     18.067622     20.108254     16.013634
Ag     20.108226     18.067564     16.013626
Ag     20.135731     20.135722     18.101985
Ag     22.182489     18.102845     18.108179
Ag     22.152069     20.119813     16.046679
Ag     24.170860     18.071168     16.043890
Ag      7.880034     22.152236     16.046684
Ag      9.897099     22.182570     18.108206
Ag      9.928759     24.170899     16.043900
Ag     11.975341     22.142382     16.022888
Ag     11.973921     24.180753     18.073321
Ag     14.000037     24.210536     16.023129
Ag     16.024689     22.142351     16.022923
Ag     16.026105     24.180739     18.073329
Ag     18.102920     22.182540     18.108223
Ag     18.071238     24.170874     16.043923
Ag     20.119887     22.152146     16.046680
Ag     14.000024      3.870561     20.093392
Ag      9.907237      7.869882     20.113944
Ag     11.939554      5.839758     20.119312
Ag     11.932839      7.853080     22.170377
Ag     14.000016      5.851274     22.146447
Ag     14.000023      7.880151     20.058029
Ag     16.060497      5.839724     20.119326
Ag     16.067173      7.853076     22.170334
Ag     18.092825      7.869835     20.113982
Ag      5.839724     11.939533     20.119370
Ag      7.869896      9.907185     20.113960
Ag      7.853101     11.932841     22.170369
Ag      9.893958      9.893929     22.174518
Ag      9.922265     11.960253     20.081726
Ag     11.960299      9.922235     20.081709
Ag     14.000051     11.955024     20.111794
Ag     16.039770      9.922222     20.081751
Ag     18.106080      9.893898     22.174559
Ag     18.077770     11.960230     20.081787
Ag     20.130143      9.907167     20.114000
Ag     20.146901     11.932815     22.170388
Ag     22.160268     11.939539     20.119345
Ag      3.870474     13.999973     20.093434
Ag      5.851183     13.999987     22.146521
Ag      5.839695     16.060445     20.119384
Ag      7.880134     13.999981     20.058046
Ag      7.853102     16.067139     22.170370
Ag     11.932838      7.853096      5.829618
Ag      9.922259     16.039704     20.081708
Ag     11.955083     13.999970     20.111793
Ag     14.000053     16.044940     20.111799
Ag     16.045000     13.999974     20.111821
Ag     18.077776     16.039726     20.081799
Ag     20.119822     13.999974     20.058069
Ag     20.146906     16.067144     22.170403
Ag     22.148729     13.999977     22.146415
Ag     22.160270     16.060412     20.119342
Ag     24.129585     13.999972     20.093330
Ag      7.869834     18.092820     20.113976
Ag      9.893980     18.106017     22.174442
Ag      9.907174     20.130171     20.113996
Ag     11.960304     18.077758     20.081721
Ag     11.932852     20.146916     22.170386
Ag     14.000026     20.119876     20.058073
Ag     16.039775     18.077766     20.081787
Ag     16.067176     20.146913     22.170399
Ag     18.106087     18.106067     22.174584
Ag     18.092848     20.130153     20.114026
Ag     20.130159     18.092797     20.114017
Ag     11.939538     22.160303     20.119400
Ag     14.000026     22.148811     22.146512
Ag     14.000027     24.129527     20.093439
Ag     16.060482     22.160288     20.119378
Ag     14.000019      7.924014     24.122629
Ag      9.950223     11.981262     24.139973
Ag     11.981294      9.950176     24.139974
Ag     14.000029     11.979204     24.121056
Ag     16.018739      9.950139     24.139987
Ag     18.049808     11.981229     24.140037
Ag      7.924040     13.999985     24.122678
Ag      9.950225     16.018718     24.139978
Ag     11.979286     13.999975     24.121051
Ag     14.000030     16.020744     24.121091
Ag     16.020778     13.999976     24.121101
Ag     18.049812     16.018723     24.140063
Ag     20.075937     13.999973     24.122692
Ag     11.981282     18.049793     24.139958
Ag     14.000011     20.075978     24.122664
Ag     16.018739     18.049816     24.140021
405

Ag     28.358177      8.848799      2.926932
Ag     31.897475      9.603234     -6.853699
Ag     26.081469      3.732990     -4.277791
Pd     15.499791      6.753927     -6.519426
Ag     23.509826     -2.649272      4.600569
Ag     18.881469     12.325536    -10.406880
Ag     23.161579      1.229805      7.681900
Ag     19.763996      6.724752    -11.434528
Ag     25.613663      0.353241      6.423531
Ag     18.190342     -5.154962     -3.420412
Ag     14.322728      4.066263     -0.766781
Ag     18.449644     -3.118741      1.954410
Ag     33.666699      4.376601     -0.190477
Pd     24.241855      8.962662    -10.897696
Ag     31.335601     -0.829264     -7.384816
Pd     25.425249      5.383609     -6.451480
Ag     24.787641      7.208541     -8.695529
Ag     34.193809      2.585302      1.973882
Pd     25.961757      2.642404     -6.887416
Ag     20.130254     -3.264899     -4.324562
Ag     27.997387     -0.500315      5.055184
Ag     28.079960     -6.336358     -3.376185
Ag     15.878006      2.793712     -9.650686
Ag     16.604681      2.127251     -4.753858
Ag     21.634999     14.667032     -3.809678
Pd     23.366323      9.495067      2.883002
Pd     26.449775      6.912508      3.759124
Ag     13.312407      8.568292     -2.499058
Pd     18.318541      9.061650      0.250043
Ag     18.297408      1.942985    -11.003879
Ag     15.403467      5.648111     -9.209074
Pd     22.457669      8.045318     -7.331367
Pd     18.794627      6.281187     -0.299618
Pd     28.719890      4.947388     -0.244776
Ag     24.391704     -3.206751     -9.209069
Ag     19.384320      4.516255      1.934003
Ag     30.378260      4.747417     -6.395403
Ag     18.967348      0.251946     -8.724417
Ag     20.577881     -6.035951     -4.736705
Pd     19.559841      5.574176      4.662262
Ag     19.390624     -2.618305     -9.209744
Ag     21.770158     -3.441762    -10.527710
Ag     22.642447     -3.061847     -3.001536
Ag     21.653420      8.687899    -12.274917
Ag     30.180877     -3.441868     -1.578525
Pd     27.108477     -0.837555     -2.537310
Pd     25.014459      8.257447     -6.040141
Ag     31.901252      3.475345      3.366098
Ag     27.515839     -4.780243     -5.660812
Ag     31.410884      6.243394      3.808702
Ag     18.706320      5.190312     -2.932023
Ag     15.573957      0.611772      3.617030
Ag     20.473920      6.038809     -6.509832
Ag     24.874617     14.172481      2.481445
Pd     26.128950      4.756247     -1.580397
Ag     25.687524     -5.617933     -2.070916
Ag     25.066531      2.252780    -14.406949
Pd     25.207538      3.284843    -11.808110
Ag     31.968978     -2.583700     -5.101184
Ag     29.468604     -2.826004     -6.549751
Ag     33.818460     -0.559105     -5.966043
Ag     27.879017      4.575844     -7.795621
Ag     19.159588      2.369039     -3.356309
Ag     24.030025     13.878010     -5.140506
Ag     22.871934     12.263808      3.426915
Ag     24.271870      2.771375     -0.704784
Ag     30.433512     -1.352344      3.768700
Ag     21.920404      4.756739      3.271458
Ag     22.408500      1.891263      2.795395
Ag     29.484183      4.252477      4.736906
Ag     15.906701      9.900407      1.529112
Ag     28.202887      0.620239    -10.944666
Pd     16.221310      6.049880     -1.662225
Ag     17.691576     10.745767     -2.013061
Pd     23.869687     -0.396763     -8.707949
Ag     25.539781     -0.682853      3.638463
Ag     24.967232      2.083812      4.193011
Ag     23.488824      3.488161     -5.592074
Ag     26.104190     10.835291    -11.771458
Ag     19.556737     11.647059     -5.546252
Ag     31.353496     12.348972     -6.435493
Ag     25.595691      6.454250     -3.804418
Ag     21.378915     12.539462     -9.143357
Pd     19.343881     10.671697     -8.250765
Ag     20.747459      1.150184    -12.293567
Ag     24.747600     -0.038983     -1.190635
Ag     22.982400     -6.852638     -6.078924
Ag     24.618456     12.113226     -2.874171
Ag     14.130966      1.885940     -6.116770
Ag     15.007808      9.477504     -6.092942
Pd     27.194907      6.279508     -9.940653
Ag     30.194871      9.739939     -0.610013
Pd     27.002340     11.318428     -4.182750
Ag     28.823950      6.039714      2.457686
Ag     18.494293     10.114766      2.875062
Ag     19.112312     14.416343     -5.102747
Pd     17.628510      9.711031     -4.700363
Ag     23.313296     -4.770872     -0.772798
Ag     32.138014     -1.525665     -2.469461
Pd     21.968088     10.872773     -6.876567
Ag     13.127795      7.501382     -5.137933
Ag     25.749650      1.583111     -9.537385
Ag     33.065368      6.118564     -2.460790
Ag     21.681423      2.564929     -2.034979
Ag     30.868166      9.015761      4.294823
Pd     15.770408      8.854813     -1.194280
Ag     17.961446      5.828920     -7.831981
Ag     31.706276      8.490946     -9.460410
Ag     25.583779     -6.661020     -4.707987
Ag     22.976134     -0.913473      2.340582
Pd     18.090605      6.950640     -5.191895
Ag     27.671436      9.494758     -2.042620
Ag     29.366743     10.398894     -5.438761
Ag     34.002241      0.464298     -3.393825
Ag     18.123673      0.856383      5.012646
Pd     16.697184      3.233298     -2.094953
Ag     19.993767      8.824234     -5.987913
Ag     31.615865      1.350994     -1.988638
Ag     30.028991     -4.506770     -4.282728
Ag     17.302129     13.549366     -1.588744
Ag     21.250367      5.370055     -1.550468
Ag     16.501588      8.215369      3.769583
Pd     20.875458      9.319471      1.579051
Pd     29.341315      9.381518     -8.230153
Pd     31.241829      5.164929      1.100223
Ag     16.117456     -2.165925      3.182241
Ag     25.981519     -3.557727      3.275404
Ag     29.583305      5.437410    -11.304675
Ag     19.047972      8.393501      5.158438
Pd     22.224906     12.914287     -1.527777
Ag     32.278437     -0.454871      0.213870
Pd     22.310597      0.803592      0.168300
Ag     16.924351     11.452358     -6.915598
Ag     28.253070     -5.383895     -0.748309
Ag     25.344168      4.382148     -9.151649
Pd     24.728679      6.118180    -11.314039
Ag     13.548711      3.682768     -8.324759
Ag     30.069517      2.643927    -11.779205
Ag     27.328707     13.397774      1.194915
Ag     28.713248     11.003479    -10.337310
Ag     29.689512     12.515731     -0.205309
Ag     24.288166     15.907026      0.269151
Ag     31.112528      4.139903     -1.554542
Ag     28.332232     -4.328050      1.970150
Ag     19.873257      1.719626      1.531413
Ag     32.957860      4.968098     -5.045333
Ag     24.473546     -2.149645     -6.520801
Ag     23.235420      8.422580      0.171141
Pd     27.799511     10.602891      0.684913
Ag     15.803084     -4.343360     -2.130897
Ag     32.072377     11.704560     -1.550417
Ag     22.167337     -0.175377     -2.520148
Ag     23.912287     12.788468     -7.760269
Ag     25.119333      3.231743      6.883967
Pd     19.776649      0.639745     -1.208579
Ag     27.089278      5.235575    -12.665676
Ag     28.814026     12.206136     -7.799154
Ag     17.178583      6.351811      5.954697
Ag     20.274115     11.038545     -0.677868
Ag     22.085786     11.820993     -4.197620
Ag     34.095406      1.585243     -0.678429
Ag     26.053650     -2.443560      5.945907
Pd     24.628039     -1.123552     -3.884434
Pd     26.665637      1.941797     -2.027354
Ag     27.024551     -1.954597     -5.179179
Ag     20.409680     12.038799      2.030015
Pd     31.726948      2.305636      0.641591
Ag     31.198524     11.256350     -9.075181
Ag     13.796584      6.859993     -0.339147
Pd     21.617769      1.481565     -4.745645
Pd     20.364411      5.017537     -9.130938
Ag     23.960672      0.626388     -6.105339
Ag     23.190566     -5.869857     -3.424874
Ag     13.610777      4.701958     -5.676807
Ag     29.282103      3.197921      1.996975
Ag     23.734946      5.612995     -0.269659
Ag     26.275296     -1.315667    -10.043588
Ag     31.442904     13.401341     -3.765249
Pd     23.862862      6.658726      2.433961
Pd     16.957745      5.350294      3.322747
Ag     24.584442      5.021128    -13.945129
Ag     15.403092     -0.533743      1.050460
Ag     25.711406      0.464012    -12.277581
Pd     26.920761      4.091805      3.368187
Pd     28.479374      2.783401     -5.605457
Ag     21.480697      0.494812     -7.413518
Ag     29.797458      0.395147      1.553912
Pd     17.468658      2.563135      2.848077
Ag     16.851633      4.257962      0.549743
Ag     15.091315      3.446296      4.158572
Ag     22.221052      6.820009      8.550680
Pd     23.141821      7.307641     -2.433402
Ag     17.331535      7.625797    -10.125387
Ag     26.659287     15.063748     -1.059184
Ag     17.589156     -3.516329     -5.697100
Ag     28.971107      7.141432      5.204638
Ag     23.771827     -1.474315    -11.431330
Ag     16.896422     10.407543     -9.622721
Pd     23.063066      0.135518      5.024755
Pd     16.068037      3.933312     -6.920323
Ag     14.043729      7.891648      2.395404
Ag     18.623345     -1.922850      4.546978
Ag     31.953411     10.644079     -4.180887
Pd     20.016320      2.745706      4.096837
Ag     13.100645      6.505933     -7.830268
Ag     32.121767      5.681746     -9.983001
Ag     26.762588      2.981017      0.647819
Ag     23.103363      0.238895    -13.614321
Pd     22.955794      5.220931     -7.781613
Pd     19.873255      7.797153     -8.734035
Ag     19.677348      6.567441      7.219914
Ag     25.109537      9.248115     -3.350125
Ag     27.284826      0.238180      0.168814
Pd     25.323715     -1.800844      1.075186
Ag     26.954658     -3.033735     -7.817584
Ag     32.631012      8.864237     -1.995071
Ag     32.347153      0.676762      2.862815
Ag     21.792065      9.747628     -9.529845
Ag     22.327997     14.064161      1.181495
Ag     14.834071      1.294565     -1.243119
Ag     30.324558     10.802081      2.054576
Pd     22.509635     -4.112522     -5.630441
Pd     25.242186     10.301709     -0.707305
Ag     23.268225      1.297913    -10.857022
Ag     19.001761      7.274030      2.419748
Ag     20.835658     -3.981446      0.527432
Ag     24.361766      9.957477     -8.237886
Ag     17.773375      4.762483    -10.542909
Ag     16.956983     -1.779281     -7.872183
Ag     21.881083     -2.384581     -7.890167
Pd     17.728626     -2.404437     -3.046801
Ag     27.576849      2.480131    -13.107192
Pd     28.202647      7.766644      0.219355
Pd     19.502410     -1.506319     -6.547800
Pd     31.472960      0.205114     -4.679903
Ag     32.582039      2.891286    -10.379335
Ag     29.924472      7.553322     -5.925463
Pd     27.456437      1.267268      2.874518
Ag     24.955344     -4.942660     -6.989710
Ag     21.016453     -2.870075      3.231647
Pd     23.374436      2.378289     -8.296953
Ag     26.377611     13.015384     -6.416385
Ag     26.590553     14.065208     -3.730400
Ag     29.193326      8.233463    -10.807963
Pd     30.284700      3.756997     -9.133069
Ag     21.219953     -1.603041    -12.687659
Ag     21.643134      8.618566      6.437917
Ag     14.993454      8.448914     -8.727728
Pd     22.586130      3.018488      5.535429
Ag     20.258007      3.888309    -11.868781
Pd     20.103100      9.966446     -3.371663
Ag     27.719804     -2.601868     -0.290639
Ag     13.476805      9.618634      0.160471
Ag     21.436375     13.661888     -6.428008
Ag     32.869579      3.989040     -7.729431
Ag     23.623181     -1.542058      7.191333
Ag     32.334780      6.771760     -7.272848
Ag     17.461861      8.660869     -7.333768
Ag     23.536027     10.526645      5.593213
Ag     17.854373     11.841193      0.719135
Ag     33.162970      7.182266      0.263503
Ag     24.105956      8.810180      7.773847
Ag     24.093373      7.775209      5.062583
Ag     14.859982      2.276998      1.500651
Ag     26.561315      7.937940      6.430986
Pd     19.656930     12.748286     -2.869011
Ag     26.289648     11.992388     -9.096450
Ag     22.319745      6.968332     -9.985712
Ag     33.558714      3.281854     -2.899659
Ag     19.276715      9.537848    -10.938648
Ag     21.729365     15.662202     -1.124552
Ag     24.142172      7.827084    -13.493275
Ag     15.687300      7.727412     -3.851422
Ag     18.179739      8.005518     -2.434175
Ag     29.932343      1.462096      4.212394
Ag     22.639135      3.064345    -13.150305
Ag     30.280541     -2.401412      1.097999
Pd     28.014152      5.646604     -5.171407
Ag     20.751701      8.196260     -1.100116
Pd     18.531468      4.080015     -5.614583
Pd     29.215759      2.114932     -0.734899
Ag     29.556138     -1.669715     -3.838661
Pd     24.347440      3.887004      1.984095
Ag     21.196761     11.511090    -11.736053
Ag     29.128065     14.278124     -2.404628
Ag     17.377541      1.517079      0.160890
Pd     27.523885      8.445507     -4.693638
Ag     15.187500     -2.657080     -4.357098
Pd     30.737864      8.060215      1.563750
Pd     27.702824      3.446162    -10.468631
Ag     26.317024      5.764030      1.111001
Pd     24.136500      1.737273     -3.386942
Ag     28.124274      6.678607     -2.434794
Pd     24.909212      1.081562      1.502773
Ag     17.053348     12.542665     -4.292857
Ag     22.457138     -5.106688     -8.276851
Pd     22.772415     -1.942885     -0.302307
Pd     21.844400      3.651505      0.641849
Pd     17.929364     -0.265371      2.391473
Pd     27.644397     -3.667753     -2.923651
Ag     25.475288     12.510069      4.691353
Pd     17.217866      0.378622     -2.565478
Ag     23.604119     10.581777    -13.056007
Ag     26.644809      7.995794    -12.179435
Ag     27.077658      5.158123      5.965648
Pd     22.096046      5.811195      6.020281
Ag     28.467744     -3.230908      4.570438
Ag     29.118299      1.114929     -3.364689
Pd     24.705629     13.202427     -0.140947
Ag     13.657707      5.813483     -2.940186
Ag     28.348872      1.780450     -8.267487
Ag     32.445430      7.767557     -4.653955
Ag     22.809336     11.193770      0.695173
Ag     18.373160     -4.144275     -0.810911
Pd     21.326925      6.421662      1.115837
Ag     20.167115      3.829054      6.809623
Ag     17.697036      3.584731      5.465138
Pd     25.956821      9.691850      4.251852
Pd     26.714929      9.129729     -9.585834
Ag     18.947092     13.374501     -7.807067
Ag     22.127110      5.906938    -12.729971
Ag     15.274255     -1.557105     -1.680267
Ag     30.810491      1.957696     -6.831465
Ag     14.407447      5.123290      1.974138
Ag     28.635895      3.860366     -2.881813
Pd     23.679963      4.488218     -2.934896
Ag     25.398405     11.455328      1.993790
Pd     22.642739     10.138212     -1.973415
Ag     17.903320     -1.311369     -0.357088
Pd     19.055919      1.330619     -6.049967
Ag     15.205732     10.555159     -3.357969
Ag     26.891711     10.139275     -6.844095
Ag     27.178650     12.306512     -1.477484
Ag     27.430232      7.355963     -7.359333
Ag     14.624999      6.161997      4.510770
Pd     31.021278      3.074629     -4.250866
Ag     21.133478     -1.766085      5.883728
Ag     21.534254      7.548350      3.763369
Ag     16.391424     -0.006376    -10.128906
Ag     27.915513     11.647133      3.398326
Ag     19.611936     -0.417927     -3.891743
Ag     27.570519      2.293086      5.524025
Pd     29.737538     -0.703168     -1.140471
Ag     19.204096     15.433713     -2.465909
Pd     20.533427     -0.095986      3.745642
Pd     24.509496     11.077032     -5.599590
Pd     21.293154     -0.673148    -10.083812
Pd     29.542970     11.527657     -2.881005
Ag     19.978491     -4.318989     -7.051992
Ag     23.712117     11.766440    -10.432029
Ag     14.037853      0.910931     -8.739805
Ag     15.359335     11.578099     -0.665146
Pd     26.422279     -0.190729     -7.404658
Pd     30.574406      5.893405     -3.808765
Ag     20.720854     -5.021178     -2.085607
Ag     16.447128      7.134291      1.055323
Ag     14.543833     -0.845973     -6.574895
Ag     14.670321      0.137464     -3.903383
Ag     24.509406      4.895762      4.640385
Pd     19.252273      3.413637     -0.732216
Ag     22.689965      4.000421      8.149460
Pd     28.948697     -0.019742     -6.093621
Ag     24.077943     14.920158     -2.425044
Pd     16.453081      1.044339     -7.429099
Pd     29.803453      6.504026     -8.621086
Pd     30.033761      8.609623     -3.317680
Ag     32.708306      9.928919      0.696556
Pd     21.080963      4.365162     -4.220631
Pd     22.108194     -1.258373     -5.195816
Ag     30.737270      0.911807     -9.628893
Ag     22.775830      4.161737    -10.487594
Ag     23.005408      6.293918     -5.111769
Ag     16.187345      4.984586     -4.284095
Ag     20.693216      1.028260      6.341973
Ag     26.074009     10.689788      6.860884
Ag     28.806698     -1.016157     -8.716749
Ag     21.008053      3.210919     -6.937694
Ag     17.113041     -0.638073     -5.189147
Ag     28.978740     13.271680     -5.120655
Ag     14.214487      3.035232     -3.398866
Ag     33.466672      2.259601     -5.549544
Ag     18.853992     -0.862023    -11.421017
Ag     33.736524      5.359018      2.487757
Ag     30.655788      6.930114     -1.063283
Ag     18.423195      3.009338     -8.303726
Pd     25.695396      7.548433     -1.124955
Ag     26.560112      0.841702     -4.663642
Pd     20.658419      7.150376     -3.803543
Ag     21.033745     10.384057      4.185018
Ag     33.254370      8.252151      2.932565
Ag     22.574888      9.097789     -4.687673
Ag     25.784119     -4.569767      0.664663
Pd     20.266306     -2.222716     -1.665430
Pd     20.875990      2.175096     -9.651841
Ag     33.256469      1.112977     -8.182892
Pd     27.882851     -1.576571      2.397634
Ag     28.442426      9.895852      5.561155
Ag     24.706519      6.033254      7.372003
Ag     23.364028     -3.712673      1.923605
Ag     19.770034     13.832765     -0.222473
Ag     25.814624      8.659615      1.528427
Pd     25.096082     -3.827595     -4.341375
Ag     20.402736     -1.061438      1.016362
Ag     25.264418     -2.811779     -1.653731
Ag     15.959653     -3.300074      0.536873
