100

Co    0.794049    -1.274610    -1.878660
Co   -0.416039     0.265292    -0.339140
Co   -1.177820    -0.806021     0.605540
Co    1.618910     0.491588     1.675460
Co   -0.844538     0.467296    -1.892720
Co    0.934069     0.413143     0.997902
Co   -0.631156    -0.026457     0.524121
Co   -1.535050     0.115820     0.838469
Co   -0.558317    -1.313170     0.035342
Co   -1.659460    -0.601563    -0.951603
Co    0.918668    -0.311525    -2.125470
Co   -0.177622     0.550045    -1.202240
Co    1.869830     0.250526     0.754424
Co   -1.496800     0.991243    -1.309390
Co    1.788140     0.936687     0.032078
Co   -0.959693     0.332412     2.109710
Co    2.292780    -0.225456    -1.125210
Co    0.419869     1.329250    -1.281230
Co    0.837567     1.095540     0.281281
Co   -1.396340    -1.118200     1.510650
Co   -0.842127    -1.220140    -0.936934
Co   -0.057540     0.712800     1.921990
Co    0.083658     0.832850    -2.077260
Co    0.684557    -0.473798     0.648250
Co   -1.887360    -0.371996     0.018728
Co   -0.768414    -1.648840     0.946722
Co   -0.429978    -1.154790     1.751810
Co   -0.743203     0.637896     1.201850
Co   -0.573134     1.369100    -1.520270
Co   -0.853994     1.294180     1.885200
Co    1.658660     1.598080    -0.692359
Co   -0.136578    -1.105290    -1.639900
Co    1.006770     0.655798    -2.321900
Co    0.053219     0.036938     1.223460
Co   -0.946451     1.767720     0.026887
Co   -0.839526    -0.328418     1.407270
Co    0.138816    -1.225860    -0.677416
Co    0.739774     0.113067     1.909160
Co   -0.398976    -2.034740    -0.598717
Co    1.378500    -0.061939    -0.854694
Co    0.628683    -0.586699    -1.240850
Co    1.828450    -0.882312    -0.557120
Co    0.821283    -2.158150     0.581149
Co    0.203144    -1.669710     1.172890
Co    0.564618    -2.053620    -0.365872
Co   -1.213050     1.865050    -0.928709
Co   -2.187300     0.554606     0.250981
Co   -1.532430    -1.279400    -0.211328
Co   -1.733810    -0.194961     1.736090
Co    0.747700     1.774580     0.974413
Co   -0.162269    -0.265438     2.119100
Co    0.250673     0.339843     0.324410
Co   -1.297930     0.412375    -0.052672
Co   -1.745830     0.094541    -1.659930
Co    0.733896     1.786800    -0.445377
Co   -0.973170    -0.497502    -0.287888
Co   -0.659986     1.619410     0.985826
Co    0.910229    -0.714137    -0.289700
Co   -1.720680    -1.585100     0.696116
Co    1.372940    -0.399424     1.329270
Co    0.732393     0.382649    -1.460350
Co    0.469617     0.102432    -0.590278
Co    0.834887     1.088760     1.686520
Co    1.535910     1.173090     0.966699
Co    0.298813    -1.915750    -1.311200
Co    0.405890    -1.341520     0.273246
Co    1.077740    -1.423390    -0.942540
Co    2.096760     0.008968    -0.189054
Co   -1.098510    -2.090580     0.119491
Co   -0.539167     0.944526     0.307641
Co    1.332810    -1.533470     0.017668
Co   -1.631330     0.776617     1.543090
Co    0.144986     1.025580    -0.394729
Co    0.033737     1.670900     1.672800
Co    0.141760     1.012680     0.995826
Co    1.623010    -0.651159     0.393746
Co    0.045896     1.730450     0.281670
Co   -0.022360    -0.139873    -1.888030
Co   -1.442390     1.106520     0.629258
Co    1.555710    -0.757221    -1.510660
Co    1.063000     0.856307    -0.644937
Co   -1.077880     0.179433    -0.996473
Co    0.481040    -0.789593     1.561340
Co   -0.287520    -0.411476    -0.988250
Co   -0.011527    -0.531237    -0.035333
Co   -1.992990     0.326735    -0.715584
Co   -0.812290     1.061990    -0.631976
Co   -0.137310    -2.140980     0.352748
Co   -0.954479    -0.513226    -1.671330
Co   -2.071800    -0.686769     0.938814
Co    1.663040     0.216816    -1.737170
Co   -1.721670     1.228400    -0.343240
Co    1.177450     0.173590     0.076912
Co    1.104270    -1.291990     0.960627
Co   -0.213242    -0.848291     0.857866
Co    1.428950     1.838370     0.239216
Co    1.354360     1.135980    -1.527710
Co   -0.242988     1.850910    -0.694888
Co    1.991470     0.690386    -0.912866
Co   -1.058960    -0.630769     2.299460
100

Co    -1.606303     0.191139    -1.877041
Co     0.806924     0.698025     0.624356
Co     0.616187     1.575142     0.430751
Co    -1.099705     0.580306    -0.593917
Co    -0.314731    -0.344240     2.605625
Co    -0.344821     0.400068    -0.056077
Co     0.741765     0.320534    -0.933488
Co    -0.178707     0.667250    -1.010999
Co     0.299206     1.835155    -0.525748
Co    -0.704663     0.524118     1.260723
Co     0.081108     0.006630    -1.660005
Co     1.364515    -1.094883    -1.741521
Co    -0.941649    -0.074383     0.515879
Co    -1.259376    -0.934103    -1.148467
Co     1.466102    -0.094837    -1.445785
Co    -0.531507     1.268878    -0.347506
Co    -1.272725    -1.681017    -0.354836
Co     1.225082    -1.351725    -0.829082
Co    -1.810869    -0.145171    -0.968576
Co     2.074155     0.407868     0.316744
Co     1.039783     1.280703     1.263827
Co    -1.734047    -1.608578     0.441624
Co     0.449744    -0.958531    -0.318732
Co    -1.145231    -1.309134     1.207746
Co    -0.077850    -0.277175    -0.797111
Co     0.617987    -1.899982    -0.105959
Co    -0.798575    -0.038787    -1.320240
Co     0.491418    -1.233024    -1.927589
Co    -0.445149     1.259674     1.870037
Co    -0.723428     0.220989    -2.244708
Co     2.046022     1.067229    -0.419463
Co     0.526370     1.381883     2.090882
Co    -1.854175     1.051761    -0.155632
Co     1.160613     1.474280    -0.472247
Co    -1.414098     0.975085     1.669562
Co    -0.154579    -0.118727     1.694957
Co     0.816537    -0.355908    -2.188883
Co     0.044922     0.050625     0.711930
Co    -0.979509    -1.018193     0.279106
Co     0.619105     1.192078    -1.161200
Co    -1.754397    -0.817636    -0.243909
Co     2.065663    -0.348100     0.981692
Co     0.078303     0.557209     2.396919
Co    -1.671462     0.377894     0.975747
Co     0.677575    -0.642726    -1.277000
Co    -0.718514    -1.774999    -1.219119
Co    -0.868340    -2.015940     0.489873
Co     1.280623    -0.866448     1.144133
Co    -1.078284     0.843729     0.367484
Co    -0.976758    -0.349903    -0.378376
Co     0.743777    -1.703425     0.826355
Co    -1.806208     1.316295     0.782851
Co    -1.747300     0.101638     0.021222
Co     0.309528    -1.595957    -1.049316
Co     0.088334     1.726535     1.265974
Co    -0.120895     1.056848     0.518532
Co     0.263219     0.251848    -2.561120
Co    -1.744465    -0.596117     0.691197
Co     0.839491     0.555025    -1.904466
Co    -1.020836    -0.633475    -2.015397
Co    -0.266670     2.008822     0.332415
Co    -0.184992    -1.714149     1.223239
Co     0.426088     0.915391    -0.253526
Co    -1.281124     1.562212    -0.869047
Co     2.010259     0.106056    -0.682732
Co    -0.563026    -1.012125     1.910073
Co     1.347365    -0.180609     0.442202
Co    -0.215892    -0.563399     0.081994
Co    -0.954021     0.941611    -1.543320
Co     1.314628     0.534933    -0.214471
Co    -0.347688    -0.823220     0.993598
Co    -0.705983     2.185384    -0.521682
Co    -0.285701    -2.048938    -0.387697
Co     1.281455    -0.450219    -0.528702
Co    -0.350832    -0.915734    -1.515897
Co     0.423491    -1.002838     1.566461
Co     1.333672    -1.196902     0.163351
Co     0.214903     0.793715     1.372341
Co    -0.415953    -1.192762    -0.566430
Co     1.461342     0.821416    -1.090229
Co    -0.156884    -0.612141    -2.346911
Co     0.763482    -0.030896     1.242749
Co     1.582399     0.502634     1.158650
Co     1.574474     1.251913     0.422755
Co    -1.876971     0.836905    -1.189571
Co     0.579740    -0.753314     0.585106
Co     0.524521    -0.040409    -0.019626
Co    -1.086312    -0.318809     1.463672
Co    -0.844574     1.507030     1.011619
Co     2.034943    -0.775485    -0.962587
Co    -0.035952     0.992361    -1.935659
Co    -1.238196     1.780942     0.103162
Co    -0.397327     1.595011    -1.224729
Co    -0.806727     0.392141     2.146653
Co    -0.092584    -1.428097     0.278163
Co     1.548757    -0.209724     1.769826
Co     0.046036    -2.333454     0.509322
Co     2.075908    -0.596448     0.000124
Co     0.997434     0.637435     2.007025
Co     0.628351    -0.321750     2.262203
