405

Pd     11.972765     11.972756      5.858989
Pd     14.004206      9.952272      5.858897
Pd      9.952290     14.004192      5.858911
Pd     16.050819     16.050808      5.870440
Pd     18.076695     14.015333      5.867380
Pd     14.015345     18.076687      5.867394
Pd     11.957782      7.917909      9.944302
Pd     13.995829      5.858876      9.952261
Pd      7.917880     11.957777      9.944308
Pd      9.935648      9.935667      9.942522
Pd     14.000512     11.968394      7.921879
Pd     16.042258      9.944300      7.917904
Pd     16.028782     11.977226      9.938040
Pd     18.064369      9.942527      9.935640
Pd      5.858868     13.995828      9.952280
Pd      9.944319     16.042247      7.917925
Pd     11.968394     14.000508      7.921886
Pd     11.977219     16.028792      9.938067
Pd     13.999435     13.999456      9.923779
Pd     18.061356     16.048255      7.920188
Pd     20.089938     14.013749      7.910071
Pd     20.079814     16.048257      9.938637
Pd     22.132632     14.015349      9.923303
Pd      9.942537     18.064375      9.935675
Pd     14.013747     20.089950      7.910076
Pd     16.048257     18.061378      7.920196
Pd     16.048254     20.079862      9.938648
Pd     18.068789     18.068833      9.931210
Pd     14.015344     22.132646      9.923288
Pd      7.910024      7.910025     14.013710
Pd      9.923306      5.867345     14.015311
Pd     13.999529      7.921859     11.968384
Pd     16.027266      5.858938     11.972738
Pd     16.031636      7.921840     14.000500
Pd     18.047727      5.858853     14.004183
Pd      5.867321      9.923258     14.015310
Pd      9.938019     11.971267     11.977210
Pd     11.971262      9.938042     11.977209
Pd     11.966034     11.966042     13.999828
Pd     14.000586      9.923767     13.999445
Pd     18.061981     11.977233     11.971255
Pd     20.082081      9.944295     11.957760
Pd     20.078119     11.968382     13.999526
Pd     22.141069      9.952246     13.995799
Pd      5.858931     16.027263     11.972746
Pd      7.921833     13.999525     11.968384
Pd      7.921827     16.031652     14.000511
Pd      9.923757     14.000603     13.999444
Pd     13.999800     16.034011     11.966078
Pd     16.033960     13.999849     11.966060
Pd     16.033953     16.034025     14.000224
Pd     18.076235     13.999472     14.000576
Pd     22.129563     16.050828     11.949171
Pd      5.858836     18.047740     14.004195
Pd      9.944307     20.082132     11.957774
Pd     11.977218     18.062017     11.971273
Pd     11.968377     20.078196     13.999525
Pd     13.999425     18.076308     14.000600
Pd     18.061349     20.079860     11.951772
Pd     20.079797     18.061385     11.951769
Pd     20.089911     20.089957     13.986267
Pd     22.132603     18.076682     13.984657
Pd      9.952263     22.141140     13.995801
Pd     16.050824     22.129593     11.949190
Pd     18.076708     22.132651     13.984666
Pd      9.938629      7.920129     16.048231
Pd     11.949214      5.870372     16.050795
Pd     11.951783      7.920116     18.061361
Pd     13.984691      5.867321     18.076700
Pd     18.055703      7.917874     16.042245
Pd      5.870364     11.949184     16.050797
Pd      7.920116      9.938621     16.048226
Pd      7.920122     11.951783     18.061353
Pd      9.931195      9.931196     18.068794
Pd     14.000208     11.966040     16.033995
Pd     16.022815      9.938025     16.028771
Pd     16.022811     11.971252     18.061995
Pd     18.057472      9.935640     18.064357
Pd     22.140971     11.972738     16.027250
Pd      5.867323     13.984683     18.076697
Pd      9.938023     16.022837     16.028766
Pd     11.966040     14.000232     16.033987
Pd     11.971250     16.022835     18.061980
Pd     14.000587     14.000603     18.076259
Pd     18.061965     16.028794     16.022809
Pd     20.078111     14.000502     16.031635
Pd     20.082065     16.042248     18.055703
Pd     22.141053     14.004182     18.047713
Pd      7.917873     18.055723     16.042238
Pd      9.935647     18.057501     18.064350
Pd     14.000497     20.078195     16.031639
Pd     16.028763     18.062031     16.022819
Pd     16.042238     20.082136     18.055699
Pd     18.064336     18.064384     18.057474
Pd     11.972743     22.141053     16.027259
Pd     14.004199     22.141152     18.047719
Pd     13.986295      7.910012     20.089958
Pd      9.938632     11.951781     20.079829
Pd     11.951786      9.938614     20.079846
Pd     11.949208     11.949182     22.129571
Pd     13.984683      9.923254     22.132630
Pd     18.055692     11.957763     20.082113
Pd      7.910031     13.986292     20.089937
Pd      9.923298     13.984674     22.132606
Pd     13.999509     16.031651     20.078147
Pd     16.031625     13.999510     20.078150
Pd     16.027250     16.027260     22.141026
Pd     18.047713     13.995821     22.141098
Pd     11.957771     18.055721     20.082103
Pd     13.995810     18.047746     22.141118
Ag     11.923934      7.844556      5.816664
Ag     14.000008      5.838660      5.838669
Ag     13.999310      7.942029      3.901582
Ag     16.048170      7.905846      5.875532
Ag      7.844568     11.923901      5.816681
Ag      9.887403      9.887409      5.817041
Ag      9.951422     11.977422      3.874806
Ag     11.977431      9.951411      3.874794
Ag     13.988476     11.967801      3.789134
Ag     16.028323      9.939430      3.826343
Ag     16.023525     11.940976      5.870383
Ag     18.106288      9.885040      5.820937
Ag     18.061370     11.975564      3.852888
Ag     20.114619     11.951123      5.862118
Ag      5.838988     14.000166      5.838859
Ag      7.942092     13.999293      3.901553
Ag      7.905913     16.048215      5.875562
Ag      9.939457     16.028303      3.826368
Ag     11.967823     13.988460      3.789152
Ag     11.940996     16.023512      5.870411
Ag     13.978105     13.978094      5.872820
Ag     14.013394     16.034998      3.842023
Ag     16.035023     14.013374      3.842013
Ag     18.053606     16.034221      3.861603
Ag     20.064669     14.010769      3.892757
Ag     20.094150     16.051146      5.884622
Ag     22.101758     14.015703      5.898221
Ag      9.885065     18.106259      5.820979
Ag     11.975592     18.061342      3.852905
Ag     11.951147     20.114588      5.862143
Ag     14.010784     20.064646      3.892757
Ag     16.034231     18.053588      3.861605
Ag     16.051153     20.094144      5.884619
Ag     18.077868     18.077866      5.877896
Ag     14.015708     22.101744      5.898199
Ag     11.971702      3.826313      9.939414
Ag     14.000716      3.901549      7.942030
Ag     16.022595      3.874757      9.951369
Ag      7.856789      7.856795      9.882346
Ag      9.893734      5.820923      9.885030
Ag      9.924184      7.896248      7.901619
Ag     11.951858      5.875534      7.905848
Ag     14.000019      7.898155      7.898156
Ag     16.076089      5.816666      7.844539
Ag     16.029680      7.869486      9.935533
Ag     18.112619      5.816996      9.887375
Ag     18.075841      7.901611      7.896235
Ag     20.103749      7.901599      9.924160
Ag      3.826330     11.971742      9.939423
Ag      5.820881      9.893722      9.885029
Ag      5.875504     11.951839      7.905839
Ag      7.896231      9.924180      7.901617
Ag      9.935536     11.970362      7.869506
Ag     11.970363      9.935547      7.869501
Ag     11.959244     11.959252      9.933173
Ag     14.000035      9.927609      9.927594
Ag     18.065637     11.944518      7.904222
Ag     20.143202      9.882351      7.856799
Ag     20.095785     11.944511      9.934378
Ag     22.179041      9.885055      9.893728
Ag     22.137884     11.951118      7.885391
Ag     24.147191     11.975572      9.938652
Ag      3.901549     14.000725      7.941986
Ag      3.874729     16.022582      9.951394
Ag      5.816707     16.076079      7.844660
Ag      7.898206     13.999996      7.898238
Ag      7.869502     16.029659      9.935569
Ag      9.927596     14.000025      9.927612
Ag     13.998946     16.036944      7.892573
Ag     16.036936     13.998946      7.892562
Ag     16.024066     16.024088      9.937511
Ag     18.068871     13.995315      9.931152
Ag     22.115385     16.051166      7.905843
Ag     24.107191     14.010766      7.935329
Ag     24.138461     16.034214      9.946405
Ag      5.817003     18.112603      9.887408
Ag      7.901643     18.075832      7.896275
Ag      7.901629     20.103749      9.924189
Ag      9.882384     20.143187      7.856840
Ag     11.944521     18.065629      7.904251
Ag     11.944515     20.095819      9.934407
Ag     13.995310     18.068909      9.931161
Ag     18.071572     20.096411      7.903593
Ag     20.096382     18.071579      7.903599
Ag     20.096380     20.096406      9.928427
Ag     22.122078     18.077844      9.922155
Ag      9.885052     22.179059      9.893747
Ag     11.951140     22.137875      7.885380
Ag     11.975584     24.147127      9.938619
Ag     14.010780     24.107235      7.935267
Ag     16.051153     22.115379      7.905819
Ag     16.034229     24.138398      9.946372
Ag     18.077865     22.122105      9.922125
Ag      7.935325      3.892731     14.010738
Ag      9.938644      3.852833     11.975546
Ag     11.965017      3.841926     14.013348
Ag     14.011574      3.789060     11.967759
Ag     16.032239      3.789047     13.988432
Ag     18.048607      3.874747     11.977392
Ag     20.057957      3.901541     13.999280
Ag      3.892728      7.935220     14.010743
Ag      5.898220      5.898162     14.015671
Ag      5.862058      7.885324     11.951089
Ag      7.885368      5.862071     11.951094
Ag      9.934376      7.904192     11.944473
Ag     11.976505      5.870343     11.940956
Ag     11.963112      7.892522     13.998923
Ag     14.021951      5.872740     13.978069
Ag     18.064475      7.869476     11.970348
Ag     20.155439      5.816637     11.923910
Ag     20.101800      7.898155     14.000002
Ag     22.161266      5.838842     13.999993
Ag     22.124444      7.905846     11.951827
Ag     24.098499      7.942078     14.000720
Ag      3.852795      9.938588     11.975536
Ag      3.841924     11.964963     14.013354
Ag      5.870317     11.976472     11.940971
Ag      7.904162      9.934375     11.944479
Ag      7.892502     11.963096     13.998924
Ag      9.931115      9.931134     13.995281
Ag     14.000031     11.968427     11.968416
Ag     16.040807      9.933183     11.959230
Ag     16.031631     11.968432     14.000016
Ag     18.072427      9.927587     14.000017
Ag     22.129626     11.941014     11.976492
Ag     24.173604      9.939413     11.971685
Ag     24.210800     11.967786     14.011526
Ag      3.789045     14.011564     11.967792
Ag      3.789057     16.032234     13.988439
Ag      5.872736     14.021934     13.978073
Ag      9.933183     16.040810     11.959252
Ag     11.968419     14.000052     11.968428
Ag     11.968416     16.031664     14.000025
Ag     14.000021     14.000044     14.000043
Ag     18.062488     16.024100     11.975958
Ag     20.107434     13.998945     11.963102
Ag     20.107417     16.036936     14.001088
Ag     22.127149     13.978081     14.021930
Ag     24.157925     14.013375     11.964982
Ag     24.157916     16.035001     13.986610
Ag      3.874714     18.048603     11.977406
Ag      3.901472     20.057964     13.999271
Ag      5.816679     20.155323     11.923891
Ag      7.869494     18.064459     11.970373
Ag      7.898251     20.101742     14.000002
Ag      9.927585     18.072460     14.000024
Ag     13.998935     20.107511     11.963110
Ag     16.024055     18.062555     11.975958
Ag     16.036918     20.107503     14.001091
Ag     18.068847     18.068910     14.004736
Ag     22.115336     20.094114     11.948851
Ag     24.138441     18.053577     11.965779
Ag     24.107174     20.064631     13.989212
Ag      5.839128     22.160811     13.999997
Ag      7.905867     22.124462     11.951771
Ag      7.941978     24.098444     14.000699
Ag      9.939406     24.173655     11.971685
Ag     11.940975     22.129653     11.976490
Ag     11.967795     24.210867     14.011531
Ag     13.978088     22.127227     14.021931
Ag     14.013388     24.157979     11.964970
Ag     16.035027     24.157985     13.986612
Ag     18.053614     24.138404     11.965768
Ag     20.094145     22.115382     11.948848
Ag     20.064711     24.107257     13.989212
Ag     22.101764     22.101763     13.984280
Ag      9.946410      3.861560     16.034183
Ag     11.965803      3.861553     18.053581
Ag     13.986658      3.841914     16.034997
Ag     16.024456      3.852785     18.061375
Ag     18.060584      3.826274     16.028310
Ag      5.884656      7.905875     16.051145
Ag      7.905837      5.884584     16.051120
Ag      7.903603      7.903591     18.071517
Ag      9.922154      5.877858     18.077846
Ag     14.001108      7.892509     16.036910
Ag     16.059059      5.870310     16.023517
Ag     16.055539      7.904168     18.065643
Ag     18.114980      5.820872     18.106279
Ag     20.094146      5.875491     16.048156
Ag     20.098393      7.896204     18.075841
Ag     22.183327      7.844557     16.076098
Ag      3.861552      9.946347     16.034196
Ag      3.861544     11.965779     18.053585
Ag      5.877864      9.922145     18.077855
Ag      9.937477     11.975946     16.024077
Ag     11.975945      9.937483     16.024078
Ag     11.975951     11.975951     18.062534
Ag     14.004754      9.931120     18.068885
Ag     18.066861     11.959242     16.040791
Ag     20.130482      9.935515     16.029667
Ag     20.130477     11.970342     18.064483
Ag     22.182955      9.887386     18.112613
Ag     24.125168      9.951404     16.022571
Ag     24.125166     11.977411     18.048575
Ag      3.841928     13.986634     16.034993
Ag      3.852773     16.024444     18.061369
Ag      5.870310     16.059057     16.023515
Ag      7.892499     14.001107     16.036912
Ag      7.904171     16.055536     18.065617
Ag      9.931120     14.004757     18.068870
Ag     14.000023     16.031668     16.031631
Ag     16.031620     14.000055     16.031623
Ag     16.040779     16.040816     18.066847
Ag     18.072416     14.000019     18.072439
Ag     22.129610     16.023512     16.058991
Ag     24.210797     13.988449     16.032188
Ag     24.173601     16.028296     18.060550
Ag      3.826273     18.060602     16.028306
Ag      5.820877     18.114975     18.106255
Ag      5.875478     20.094121     16.048219
Ag      7.896223     20.098394     18.075832
Ag      9.935547     20.130524     16.029662
Ag     11.959228     18.066892     16.040796
Ag     11.970355     20.130529     18.064455
Ag     14.000010     18.072470     18.072430
Ag     18.065610     20.095824     16.055514
Ag     20.095754     18.065640     16.055516
Ag     20.143172     20.143206     18.117634
Ag     22.179022     18.106265     18.114929
Ag     22.137860     20.114595     16.048861
Ag     24.147180     18.061335     16.024412
Ag      7.844652     22.183301     16.076102
Ag      9.887409     22.183011     18.112596
Ag      9.951387     24.125252     16.022561
Ag     11.977427     24.125275     18.048591
Ag     13.988464     24.210879     16.032197
Ag     16.023519     22.129653     16.059036
Ag     16.028320     24.173677     18.060573
Ag     18.106265     22.179079     18.114947
Ag     18.061384     24.147141     16.024416
Ag     20.114627     22.137909     16.048868
Ag     13.989252      3.892702     20.064670
Ag      9.928483      7.903591     20.096373
Ag     11.948886      5.884575     20.094150
Ag     11.948874      7.905792     22.115366
Ag     13.984335      5.898147     22.101765
Ag     16.048911      5.862031     20.114640
Ag     16.048912      7.885310     22.137916
Ag     18.117660      7.856774     20.143207
Ag      5.884587     11.948882     20.094156
Ag      7.903606      9.928471     20.096370
Ag      7.905824     11.948880     22.115351
Ag      9.922146      9.922148     22.122069
Ag     14.001104     11.963094     20.107474
Ag     16.055534      9.934356     20.095818
Ag     16.059003     11.976490     22.129676
Ag     18.114979      9.893718     22.179095
Ag     20.098388      9.924149     20.103775
Ag     20.094170     11.951837     22.124480
Ag     22.183322     11.923913     20.155424
Ag      3.892700     13.989235     20.064681
Ag      5.898195     13.984324     22.101762
Ag      5.862049     16.048897     20.114618
Ag      7.885363     16.048894     22.137888
Ag      9.934385     16.055538     20.095797
Ag     11.963109     14.001107     20.107470
Ag     11.976522     16.059016     22.129662
Ag     14.021948     14.021937     22.127212
Ag     18.064436     16.029658     20.130503
Ag     20.101779     13.999995     20.101818
Ag     20.155355     16.076066     22.183280
Ag     22.161227     14.000120     22.161159
Ag     22.124419     16.048188     20.094112
Ag     24.098403     13.999283     20.057918
Ag      7.856806     18.117646     20.143177
Ag      9.893754     18.114978     22.179062
Ag      9.924171     20.098404     20.103760
Ag     11.951784     20.094144     22.124480
Ag     14.000010     20.101751     20.101732
Ag     16.029645     18.064477     20.130502
Ag     16.076116     20.155348     22.183297
Ag     18.112595     18.112611     22.182973
Ag     18.075830     20.103781     20.098381
Ag     20.103736     18.075852     20.098379
Ag     11.923906     22.183328     20.155332
Ag     14.000013     22.160852     22.160826
Ag     13.999301     24.098488     20.057974
Ag     16.048223     22.124493     20.094105
Ag     13.989255      7.935230     24.107231
Ag      9.946410     11.965789     24.138365
Ag     11.965799      9.946358     24.138367
Ag     13.986646     11.964963     24.158003
Ag     16.024456      9.938595     24.147147
Ag     18.060577     11.971747     24.173647
Ag      7.935306     13.989239     24.107220
Ag      9.938643     16.024429     24.147126
Ag     11.965014     13.986628     24.157989
Ag     14.011566     16.032234     24.210875
Ag     16.032213     14.011564     24.210894
Ag     18.048593     16.022585     24.125239
Ag     20.058001     14.000726     24.098428
Ag     11.971710     18.060605     24.173671
Ag     14.000724     20.057996     24.098468
Ag     16.022582     18.048611     24.125242
405

Ag     14.806621     24.684046      0.959942
Ag     21.172288     22.661710     -6.446264
Ag     16.210950     25.890584     -2.622978
Pd     14.515927      8.187550     -7.239519
Ag     15.876890     12.493067      4.057552
Ag     29.035854     13.928592     -1.815539
Ag     15.337248     13.862151      6.543198
Ag     27.175690     16.234971     -1.725603
Ag     17.271040     15.376173      7.833204
Ag     14.525613      9.684948      0.229174
Ag     19.134505     13.169862      7.826558
Ag     11.454025     14.535334      5.255322
Ag     29.525179     12.694097     -4.259425
Pd     18.712675     13.470001    -10.586075
Ag     28.464973     13.641565     -6.816025
Pd     19.820104     21.410394     -2.872402
Ag     16.776785     11.967186    -11.916985
Ag     24.910135     23.534829      2.244904
Pd     21.550598     19.132088     -2.945031
Ag     13.847722      9.405902     -4.738033
Ag     20.281965     10.577993      2.773447
Ag     21.547365      7.985026     -2.201895
Ag     26.365205     13.664260     -0.652309
Ag     10.304426     13.938942     -4.573272
Ag     10.736760     19.900786     -9.195026
Pd     17.278359     13.830197      0.481988
Pd     23.119651     14.650867      3.073174
Ag     16.316481     20.126398      6.806895
Pd     12.903802     15.800897      1.679188
Ag     12.348786     13.872110    -10.654692
Ag     27.494552     12.698398      1.757272
Pd     16.534568     20.839836     -6.589385
Pd     18.355048      9.053526      1.401003
Pd     13.498312     12.971266     -8.312711
Ag     21.305816     15.389743     -4.280835
Ag     11.685259     16.744928     -0.712466
Ag     24.756226     18.202631     -6.650417
Ag     13.739866     16.774639     -6.823530
Ag     20.042790      5.129183     -6.041962
Pd     15.679510      8.723823      2.653104
Ag     18.191799     14.725326     -8.114434
Ag     16.332051     17.026430     -7.988999
Ag     17.949613     12.486518     -2.054529
Ag     28.072063     18.787117     -2.798229
Ag     23.782900     13.372497      0.495855
Pd     26.143915      9.874806     -2.082236
Pd     17.997511     23.672138     -2.684314
Ag     22.349970     23.218663      3.430334
Ag     23.987597     15.602124     -5.491408
Ag     18.591285     23.885247      2.219131
Ag     11.153345     16.411365     -5.601726
Ag      9.993554     11.645428      1.485215
Ag     12.716393     21.565652     -7.839642
Ag     13.597292     25.514725     -1.510274
Pd     21.689600     11.807177     -0.781494
Ag     23.365019      5.725780     -2.236555
Ag     21.951069     12.486805    -14.228973
Pd     22.716458     16.637781     -7.865226
Ag     24.408220     23.287407     -2.700259
Ag     25.414915     18.501176     -1.647381
Ag     30.280450     15.229446     -5.419181
Ag     20.766987     15.057753     -9.271639
Ag     12.891977     14.169014     -5.753359
Ag     10.190723     21.261911     -6.695370
Ag     14.856452      4.604885     -3.717196
Ag     14.369428     17.045122     -1.848108
Ag     22.876369     10.886549      1.570234
Ag     15.722172     19.841905      1.953538
Ag     13.110527     19.556972      3.187536
Ag     17.127827     22.635640      5.737531
Ag     23.465289     11.147080      6.534481
Ag     24.381224     10.496615     -9.427821
Pd     13.306719     10.715684     -2.275713
Ag      8.499612     16.203203     -4.486307
Pd     21.940996     14.082304     -6.832430
Ag     16.750741     15.064116      2.929156
Ag     19.286162     15.356214      1.774281
Ag     16.785015     24.692309     -5.198143
Ag     18.629767     20.816754    -12.645610
Ag      9.701334     13.612587     -9.511230
Ag     23.827055     23.001156     -7.627126
Ag     18.844918     26.120311     -3.819531
Ag     11.424786     18.664860    -11.633539
Pd     17.948721     10.948887     -9.453509
Ag     15.744049     16.684950    -12.927905
Ag     18.771077     15.042976     -3.192386
Ag     18.301379      7.487610     -5.977322
Ag     15.147578      6.896645     -9.786329
Ag     26.957846     13.992809      4.254155
Ag     23.305150     18.423355      4.470852
Pd     17.790456     18.235687    -11.572860
Ag     20.956923      7.758903     -7.129644
Pd     21.161014     11.507233     -5.738323
Ag     19.131937     22.679044     -0.342798
Ag      7.163472     14.900814     -0.964684
Ag     28.166630     11.470823     -0.730744
Pd     14.081494     13.271387     -3.335947
Ag     18.893599      7.730772     -1.061943
Ag     25.579649     22.250436     -0.193876
Pd     16.116195     13.199217     -9.444298
Ag     20.698469     18.140930      5.670576
Ag     23.143581     11.528236    -11.861320
Ag     25.586744      9.619555     -6.980577
Ag     16.140219     14.767847     -2.029986
Ag     21.185507     24.245825      0.997877
Pd     14.759042     13.566677      1.554604
Ag     25.942595     18.738499      3.268569
Ag     24.369449     21.635022    -10.035512
Ag     23.892468      4.626102     -4.798161
Ag     18.511315     12.780741      2.881162
Pd     15.955262     10.968400     -3.421646
Ag     21.552719      6.505490     -9.657786
Ag     22.992002     20.383773     -6.480083
Ag     26.824643      8.556044     -4.577770
Ag     12.279372     17.110493      4.190991
Pd     13.769879     18.260511      0.635302
Ag     26.727298     21.283042      2.208763
Ag     23.776969     24.461137     -0.155175
Ag     23.551886     20.708181     -1.547563
Ag     24.155592      9.910303      4.040846
Ag     12.555903     19.301359     -1.839719
Pd     21.775590     21.421516     -8.962280
Pd     19.149615     11.612263      0.364947
Pd     20.480972     11.221566    -10.689344
Pd     11.741465     15.169092     -8.238765
Ag     13.275071     12.228600      5.202771
Ag     20.080005      6.778685      1.366347
Ag     24.234073     17.934141    -11.576347
Ag     13.610387      7.128205      1.332056
Pd     16.400331     18.533222     -0.613129
Ag     22.742858     18.161219     -0.500392
Pd     17.801535     21.412827      3.264548
Ag     27.299667      8.876083      0.344397
Ag     24.069317      8.335158     -3.378443
Ag     22.560034     12.779764     -9.289987
Pd     15.132123     17.988392    -10.401490
Ag     24.292165     13.750934      5.437419
Ag     25.993672     15.654178    -11.574464
Ag     13.718016      5.624234     -6.167406
Ag     20.626498     22.366092    -11.356517
Ag     19.114228      9.979367     -7.095766
Ag     10.733085      8.888811     -8.492705
Ag     23.583577      7.966576     -8.397024
Ag     22.677961      7.063563      0.207968
Ag     14.875302     17.336872      3.062776
Ag     26.757929     19.689017     -5.227725
Ag     22.149404     17.923859     -5.376218
Ag     13.338574     21.833233     -2.942863
Pd     23.892977     17.181124      1.937741
Ag     12.501412      8.131637     -1.163129
Ag     21.754155     10.240486     -8.204408
Ag     14.684087     11.980166     -5.868148
Ag     13.113889     16.454322    -11.732881
Ag     15.541063     17.594040      7.881765
Pd     19.599426     19.172985      3.157369
Ag     22.190808     16.317034    -12.867404
Ag     19.747762     19.859479    -10.283992
Ag     10.289194     15.537110      2.890607
Ag      9.313922     18.674825     -5.618672
Ag      9.907943     17.439674     -8.146559
Ag     28.651480     10.227907     -3.182864
Ag     18.151172     17.907126      6.807846
Pd     22.954558     21.927594      0.929444
Pd     25.707501     14.996471      1.916439
Ag     21.792682     22.995906     -1.468819
Ag      7.989612     17.370429     -1.955702
Pd     17.055255      8.409680     -8.440422
Ag     22.620500     23.813323     -9.982569
Ag     21.710552     13.421876      6.609850
Pd     20.390483     21.731398      2.155976
Pd     15.720584     18.311363     -5.475427
Ag     18.566529     22.440281     -5.265802
Ag     19.669320     10.276707     -2.098965
Ag     25.094010     16.198715      4.414908
Ag     20.947523     20.387678     -0.354058
Ag     16.955976     17.289953     -3.068427
Ag     21.368878     26.346850     -5.014602
Ag     23.173131     24.240539     -5.113924
Pd     20.514379     14.392593      4.200587
Pd     12.089484     13.191987      2.780749
Ag     20.177661     14.762524    -14.175881
Pd     24.587619     14.397050     -8.012057
Ag     21.164753     10.022666    -13.147833
Pd     10.474339     17.690261     -3.204292
Pd     25.999149     17.159663     -4.149841
Ag     16.008018     22.157660     -4.037836
Ag     24.588514     15.959098     -0.512770
Pd     13.880238     10.971068      2.726581
Ag      9.093603     16.505503      0.514920
Ag      8.214741     13.959468      1.533214
Ag     14.935817      6.259828      3.704207
Pd     20.307066      9.021404     -4.609123
Ag     27.698252     16.483142      3.225353
Ag     17.328165     12.192320     -7.006204
Ag     16.291134      5.875565     -7.361652
Ag     19.730809     22.899179      4.596446
Ag     19.347366     24.981724     -6.421310
Ag     27.842592      7.727340     -2.161203
Pd     15.057349      8.508710     -2.346337
Pd     11.304291     20.227136     -4.268315
Pd     20.979834     18.835343     -7.822536
Ag     14.114101     14.835863      4.103862
Ag     22.061696     25.196595     -7.546890
Pd     19.735085     11.897261      5.309544
Ag     22.499561     15.927874      5.559248
Ag     26.212785     19.434520    -10.124703
Ag     18.387789     20.187345      0.769317
Ag     19.959924     23.629471     -8.883673
Pd     18.372334     18.570996     -6.650934
Pd     15.310375     10.703040     -8.394167
Ag     11.787629      9.337106      1.398612
Ag     14.099866     24.417819     -4.048389
Ag     20.167093     17.876212      0.676905
Pd     12.751728     10.395510     -7.177752
Ag     20.414134     20.126819     -5.349087
Ag     24.924632     10.885385     -4.467585
Ag     24.142018     20.968635      3.342859
Ag     27.366311     20.041449     -0.284719
Ag     12.533733      6.610442     -8.605101
Ag      8.905823     12.638566     -0.988413
Ag     17.463783      4.846944     -4.904702
Pd     22.104557     19.441404      2.055101
Pd     19.946446     14.049703     -0.732687
Ag     20.327955      7.446786    -12.044839
Ag      9.861316     18.999281     -0.652105
Ag     16.308394      7.490496      0.101721
Ag     19.344236     12.229456    -13.080027
Ag     28.296438     15.247126      0.680168
Ag     10.063672     10.125018     -5.971742
Ag     17.724354     19.805700     -4.171538
Pd     18.788736     16.675589      4.251887
Ag     23.950638     14.069943    -12.906347
Pd     22.588996     14.392878     -1.920564
Pd     20.731232     16.615193     -1.816921
Pd     27.794325     14.961028     -4.166910
Ag     27.906177     17.161535    -10.175069
Ag     21.592058     17.618555    -10.353294
Pd     12.296787     15.508528     -3.223021
Ag     19.540051     17.587744     -4.236524
Ag     15.067555     10.007818      5.145513
Pd     20.211968     16.310744     -6.728352
Ag     17.150725     19.529546     -9.134936
Ag     17.706851      7.204312    -10.914382
Ag     22.397008     20.081075    -11.510740
Pd     21.314813     13.791891    -11.725458
Ag     17.356082     23.308070     -7.642374
Ag     13.108333      8.432646      3.767645
Ag     25.314343      7.385397     -0.911623
Pd     11.545170     12.909097     -2.205914
Ag     13.947789     18.933549    -12.796065
Pd     16.683146     13.502790     -4.459614
Ag     22.304638     10.598092     -3.356810
Ag     19.464437      7.987131      3.952259
Ag     10.583056     16.151760    -10.604407
Ag     27.467427     18.547161     -7.782778
Ag     17.080847     11.557438      6.486784
Ag     25.712697     20.786910     -7.668949
Ag     28.555054     19.031924      2.130338
Ag     12.990679      6.874909     -3.619517
Ag      7.697992     13.638482     -3.408182
Ag     23.125943     13.057140     -4.454657
Ag     16.818780      7.745394      5.087726
Ag     15.120378     21.084840      4.493788
Pd     25.401073     16.869370     -9.064465
Ag     16.016288     23.680240      3.381987
Pd     14.879066     15.779143     -4.377345
Ag     17.528530     14.438088    -13.020517
Ag     18.546662      9.745873    -12.007878
Ag     27.611082     11.090271     -5.661380
Ag     29.770991     16.451657     -2.870636
Ag      9.579302     22.434797     -4.160357
Ag     18.371133     16.988977    -14.100867
Ag      8.320403     12.360617     -5.923710
Ag      9.148213     14.924804     -7.060045
Ag     21.124550     13.129661      1.720730
Ag     13.406125     20.278004    -10.372913
Ag     21.977873     15.646466      0.553257
Pd     22.370140     21.653550     -4.014612
Ag     10.732839     21.517016     -1.716759
Pd     15.430965     23.406739     -1.525975
Pd     26.585917     17.528144      0.772555
Ag     26.252687     21.047175     -2.730525
Pd     22.307192     12.160664      4.120647
Ag     29.201789     17.819328     -0.383255
Ag     15.504823     14.441082     -6.957006
Ag     10.925479     14.178055      0.303479
Pd     20.632720     23.961647     -3.887729
Ag     11.257468      9.099552     -3.592549
Pd     14.395539     15.398677     -9.348426
Pd     19.531069     15.985666    -11.654949
Ag     15.108864     19.522393     -2.954217
Pd     22.079550      6.713260     -4.720656
Ag     18.854121      6.226774     -8.538037
Pd     10.912655     12.680150     -7.106417
Ag     24.761820      8.593494      1.534451
Ag     19.963123     12.501008     -8.156844
Pd     24.912285     12.478622      2.936371
Pd     20.920220      9.345067      0.262307
Pd     17.927698     14.138691      5.432338
Pd     12.579939     17.672195     -9.303733
Ag     14.240102      5.935235     -1.274207
Pd     15.531461     16.038213      0.511675
Ag     16.550354     19.253764    -13.939019
Ag     20.370744     18.532542    -12.767566
Ag     18.929817     20.417255      5.683908
Pd      9.750318     15.176199     -2.078973
Ag     22.119889      8.311225      2.733977
Ag     22.564865     25.533877     -2.534356
Pd     18.140433     16.292325     -0.643696
Ag     20.912881     10.945031      7.630847
Ag     26.360044     12.063710     -8.060621
Ag     25.026047     22.002655     -5.152721
Ag     11.553346     24.096470     -2.849331
Ag     12.731866     11.965724      0.333292
Pd     16.547583     11.254598      1.501091
Ag     14.357813     18.626903      5.553521
Ag      9.555028     12.991093      3.884934
Pd     21.347100     16.947423      3.122308
Pd     16.904559     15.728553    -10.535129
Ag     25.553504     11.101633      0.457698
Ag     15.972495     20.563598    -11.532908
Ag     10.650461     10.382719     -1.117176
Ag     26.611791     15.883766     -6.651159
Ag     22.309026      8.970951    -10.746829
Ag     22.736076      5.485212     -7.196710
Pd     23.542450      9.623616     -0.914603
Ag     12.801024     23.103623     -0.425649
Pd     18.490980     11.290099     -4.605614
Ag     15.314332     12.275403     -0.884394
Pd     17.198007     21.049943     -1.627697
Ag     21.562302     20.749324      4.547668
Ag     18.970829     17.291917     -9.165133
Ag     15.888266      9.391405    -10.857863
Ag     23.412839     15.301474    -10.390106
Pd     23.557550     19.178605     -9.019244
Pd     24.135596     19.462401     -4.070518
Ag     17.637045     10.238145      3.963598
Ag     11.101373     18.046534      1.813062
Ag     11.543691     11.404742     -9.581683
Ag     17.405386     24.960250     -0.228018
Ag     16.518016      9.734586     -5.947728
Ag     17.488420     17.658210      1.871787
Pd     13.997079     20.530621     -5.436330
Ag     26.733260     10.199929      2.827241
Pd     16.098746     16.389676      5.437211
Pd     19.734370      8.687586     -9.578975
Pd     19.299878     13.802253     -5.686230
Pd     23.697649     11.854856     -6.937944
Ag     15.732262      7.125164     -4.768405
Ag     14.940551     14.225335    -11.847952
Ag     26.110755     11.451953      5.394962
Ag     18.860054      9.335513      6.393857
Pd     25.136715     14.621945     -3.111526
Pd     26.998293     12.414426     -3.114972
Ag     18.132473      5.130264      0.086716
Ag     19.933599     15.697978      6.759699
Ag     11.834971      7.896190     -6.030389
Ag      9.466749     11.365218     -3.525344
Ag     13.888041     22.169708      2.056079
Pd     16.874746      6.206926     -2.460457
Ag     15.425393      4.901177      1.215497
Pd     23.320779     16.890826     -2.937577
Ag     13.339798      9.112688     -9.693322
Pd     14.593585     20.782207     -0.456142
Pd     19.161121     21.100080     -7.778482
Pd     22.924954      9.368197     -5.807822
Ag     25.819063     13.400529     -5.553930
Pd     19.441463      6.429113     -3.569459
Pd     18.913139     18.894047     -1.732971
Ag     27.157913     14.663652     -9.150936
Ag     15.330767     21.864204     -9.076188
Ag     12.146052     22.780254     -5.341709
Ag      8.914829     11.107581     -8.365420
Ag     13.563573     16.063156      6.655522
Ag     16.100762      3.767677     -1.342582
Ag     25.242938     13.072663    -10.574860
Ag     14.600157     19.274037     -7.887619
Ag     12.148536     11.693717     -4.684865
Ag     17.952710     22.156564    -10.258130
Ag     21.507658      9.623392      5.205714
Ag     28.620774     17.511517     -5.354138
Ag     14.152685     11.703641    -10.793449
Ag     25.890932      6.045902     -3.434450
Ag     24.674795      7.035025     -5.925978
Ag     11.942729     18.980452     -6.780990
Pd     24.322566     12.113036     -1.976024
Ag     19.956889     25.268821     -1.355219
Pd     17.710762      8.737655     -3.501130
Ag     11.897016     20.546001      0.644477
Ag     21.231672      4.252168     -3.664784
Ag     14.785620     23.049319     -6.516168
Ag     20.716194      5.416788     -1.139428
Pd     16.976842     18.822359      4.329751
Pd     17.527255     16.000447     -5.557601
Ag     29.214963     16.253914     -7.891092
Pd     13.132420     17.954176     -4.359567
Ag     18.638225      3.945777     -2.518334
Ag     17.454433      6.463027      2.529750
Ag     17.095380      9.946750     -0.968586
Ag      8.781561     19.976230     -3.137282
Ag     16.587446     22.422295      0.867095
Pd     24.714956     19.711510      0.857412
Ag     13.527307     14.528891     -0.766817
Ag     20.519250     12.856468     -3.223884
Ag     11.284044     10.670056      3.866003
