66

Li   -0.397164     1.215726    -2.103557
Li   -1.290252    -1.994812    -0.640423
Li   -1.509980    -1.216887    -1.390756
Li    1.996499     0.123350     1.486586
Li    2.261279    -0.303807    -0.710118
Li    1.320704    -1.849326     0.637316
Li    1.554785     1.725405    -0.033116
Li    0.032589    -0.770463     2.136595
Li    0.177470     1.431283     1.724201
Li    0.468164    -1.473961    -1.407309
Li   -1.039159     1.727992    -1.342101
Li   -1.948432    -1.403677     0.086498
Li   -2.224077     0.747977     0.199691
Li   -2.298054    -0.379431     0.414848
Li   -1.367748     0.762554    -1.768666
Li   -1.749567     1.527661    -0.469417
Li    0.600608     0.752125    -1.824011
Li   -2.139542    -0.596380    -0.661145
Li   -2.059850     0.540166    -0.879461
Li   -0.911710    -1.743358     0.359910
Li   -0.676097     1.809301    -0.307579
Li   -1.610622     0.271134     0.999773
Li    1.669726    -0.869473     1.068543
Li    2.142951    -0.091183     0.389824
Li    1.787581     0.931336     0.730655
Li    1.093705     0.784004     1.617155
Li    1.802773    -1.085678    -0.038490
Li    1.020486    -0.326893     1.824833
Li    1.919934     0.716572    -0.377137
Li    1.373126    -0.893847    -1.069776
Li    0.102487     0.332935     1.942968
Li    0.679071    -1.320071     1.395776
Li    0.870856     1.590050     0.851279
Li    1.443313     0.223216    -1.280718
Li    0.896301    -1.674499    -0.389069
Li    1.086425     1.247635    -0.938010
Li    0.202738    -1.816190     0.494718
Li   -0.445817    -1.268824     1.252299
Li   -0.254907     1.633947     0.708592
Li    0.439743     1.785014    -0.176565
Li   -0.801166    -0.251110     1.580849
Li   -0.727900     0.857358     1.372216
Li    0.539832    -0.365263    -1.628165
Li   -0.232986    -1.624227    -0.534033
Li   -0.440717    -0.837483    -1.308744
Li   -1.297725    -0.164768    -1.195415
Li   -0.036112     1.290700    -1.069203
Li   -0.362300     0.290106    -1.517748
Li   -1.272841    -0.740177     0.676401
Li   -1.154920     1.043072     0.339527
Li    0.333369    -0.017378     0.157070
Li   -1.107912    -0.939632    -0.412977
Li   -0.985692     0.811365    -0.748298
Li   -1.446343     0.054220    -0.101268
Li    1.148584     0.052167     0.810259
Li    1.278686    -0.158302    -0.270321
Li    0.817480    -0.917504     0.392605
Li    0.932169     0.839422     0.063019
Li    0.184925    -0.387001     1.129761
Li    0.256452     0.694346     0.927394
Li    0.399407    -0.734435    -0.612440
Li    0.471099     0.359718    -0.816792
Li   -0.272724    -0.869860     0.254959
Li   -0.157964     0.881785    -0.071127
Li   -0.618625     0.123843     0.575871
Li   -0.466408    -0.091587    -0.508040
66

Li     0.170223     0.418031    -1.053399
Li     1.031510    -1.216002    -1.623042
Li     1.572875    -1.124310    -0.602793
Li     0.075280     0.445662     1.660381
Li     0.542663    -0.524719     1.949545
Li    -0.578079     0.694400    -0.313844
Li     0.477439    -0.211103     0.883983
Li     0.023972    -1.947473     0.254400
Li    -2.297114    -0.274172     0.260174
Li    -1.237162    -1.334073     1.581167
Li    -0.153620    -1.071188    -1.393460
Li    -1.692597    -1.524577    -0.532481
Li    -1.345894     0.167165    -0.877343
Li    -0.518267    -2.047919     1.186967
Li    -0.916570     1.432616     0.389024
Li     0.194780    -0.871387     0.033467
Li    -0.694395    -1.112416     0.602573
Li     1.981128     0.081220     0.687199
Li     1.958240     0.957542    -0.046084
Li     0.333178     1.566831    -1.287017
Li     1.195012     0.346923     1.511558
Li     1.189799     1.719349     0.302786
Li     0.156950     1.859540     0.501683
Li    -2.017232     0.481355     1.081306
Li     2.062316     0.663451    -1.152726
Li     1.137484    -0.462543     0.071720
Li    -2.084177     1.294551     0.340700
Li     1.325885    -0.764175     1.181579
Li    -1.398355    -0.340307     0.989216
Li    -0.329834     1.543858     1.442718
Li     1.087816    -1.446675     0.304475
Li    -0.419733    -0.350983    -0.637837
Li    -1.477040     1.239644    -0.554670
Li     0.697138     1.350134     1.260560
Li    -0.183782    -1.326579     2.024306
Li    -1.776793    -1.335039     0.531522
Li     0.575142    -0.236329    -1.931264
Li    -1.115153    -2.070509     0.265531
Li    -1.238532    -0.815435    -1.190376
Li     0.666988    -0.545457    -0.877849
Li     1.053374     0.580642     0.503402
Li    -0.478527    -0.450022     1.429007
Li     1.802222     1.097049     1.071194
Li    -0.933473     0.525916     1.223472
Li    -0.506899    -0.086377     0.450909
Li    -1.290121    -0.642253    -0.154072
Li    -2.153375    -0.530188    -0.834686
Li     2.096080    -1.022692     0.367078
Li    -0.738882     1.002611    -1.297494
Li     1.545870    -0.261660    -1.427998
Li     1.139980     0.764057    -1.673564
Li     1.180830     0.397764    -0.613528
Li     0.584152     2.233509    -0.448939
Li     1.389757     1.487749    -0.820559
Li    -0.644192    -1.370963    -0.522101
Li    -2.327281     0.511724    -0.439400
Li    -1.427910     0.448280     0.173643
Li     0.032702     0.816554    -2.092271
Li     0.314237     0.148197    -0.102488
Li     2.061990    -0.143519    -0.389354
Li    -0.039316     0.773574     0.665740
Li     0.434286     1.164313    -0.243226
Li    -0.584961    -0.013731    -1.734475
Li     0.489973    -1.558263    -0.709130
Li    -0.427724     1.729544    -0.465682
Li     0.270745    -1.204413     1.047182
