200

Co   -0.627514    -0.387733    -2.454810
Co    2.223620     1.086680    -0.865968
Co    1.164810    -2.176060     1.489440
Co    1.904100    -0.780911     0.299560
Co   -0.490991    -0.088481     1.271450
Co   -0.457819    -1.660530    -0.485655
Co    2.601000    -0.814289    -1.251840
Co   -1.312510     0.258679    -2.137120
Co    1.891910    -1.091100    -0.632903
Co    0.247393    -1.821420     1.343680
Co   -0.252616    -2.597990    -0.670103
Co    1.694010    -0.460423    -1.371440
Co    0.632998     2.158890     0.728249
Co    1.181000    -1.385520    -0.024351
Co   -0.894550     1.298360     2.582710
Co   -1.368730    -1.322030    -0.619539
Co   -2.080440    -1.921250    -0.940095
Co   -1.020460    -2.160700     1.810080
Co   -1.222300    -0.701345     0.951787
Co    2.622620    -0.182370     0.620969
Co    0.094088    -2.693640     0.249304
Co    0.607275    -1.920560     2.251610
Co    2.435940     0.769434     0.813734
Co    0.264928    -1.677910    -2.028960
Co    0.792728     0.521988    -2.728780
Co    1.526940    -1.470780     0.889349
Co   -0.648279    -0.714621    -0.294931
Co   -0.689858     0.612508     1.928220
Co    0.076166    -1.023680    -2.754680
Co    0.787206    -0.427174    -2.442520
Co   -1.439280     3.119000    -1.100970
Co    1.715660    -2.418800     0.718267
Co    1.719930     0.169005     0.492535
Co   -0.108345    -1.747800     0.430585
Co    0.808778    -2.073940     0.567081
Co   -0.316911     1.306940     1.342240
Co   -0.777637     1.876890    -0.206175
Co    2.625370    -0.493312    -0.316114
Co   -1.264540     1.495910    -1.470940
Co    0.054691    -0.878579     1.534120
Co    2.426320     0.140274    -1.058010
Co   -0.107709    -2.505200     1.932880
Co   -0.985594     2.589550     0.440132
Co   -2.056930    -0.986550    -1.228680
Co   -0.583665     1.165700    -0.858473
Co   -0.294315     2.257060     1.059170
Co    1.494140     0.168747    -2.124710
Co   -1.382780    -2.089640     0.892885
Co    1.547390     1.744470    -0.547389
Co    2.796830    -1.135460     0.424905
Co   -1.070430    -0.075512     2.536100
Co   -1.216810     2.442480    -1.759730
Co    0.572915     0.430052     2.526800
Co    0.846074     2.075370    -1.166020
Co    0.064135    -0.727469    -1.832190
Co   -0.816154     0.936689     0.078953
Co   -1.761790     0.094124     0.692053
Co    1.699130    -0.785530    -2.297600
Co   -1.591230    -1.386480     1.554150
Co    0.858222     2.379760    -0.222582
Co    1.899770    -1.412110    -1.573510
Co   -0.550664     2.106450    -1.149100
Co   -0.469917    -2.439950     1.029310
Co   -1.221400     2.347110     1.375360
Co    1.868830    -1.576770     1.802430
Co    0.142897     1.775940    -0.538038
Co    0.783853    -0.120227    -1.506200
Co    0.822864     1.752590    -2.097490
Co    0.826592     1.137440    -0.862975
Co    0.258182    -1.367620    -1.095230
Co    1.156700     0.422575     1.273320
Co    0.980170    -0.751250    -0.763263
Co    1.376180    -2.624050    -1.146240
Co   -0.086544     1.550840     0.406278
Co    0.994000    -0.437423     0.167410
Co   -1.546560     0.324923    -0.250853
Co   -1.346670    -0.688666    -1.848070
Co    0.264618    -1.050210    -0.160212
Co    0.118234     1.161270    -2.422140
Co    0.795332     0.194574    -0.572279
Co   -1.905110     2.675500     0.747821
Co   -1.408550     0.009448     1.604940
Co   -0.529176    -0.851908     2.783730
Co    1.873080     1.022810     1.594370
Co   -1.342990    -0.384480    -0.906060
Co    1.493720     0.325495     2.185200
Co    0.777014    -0.273767     1.860370
Co    2.439210     0.457166    -0.122275
Co   -0.649605    -1.329630    -2.156990
Co    2.089120    -2.030620    -0.839515
Co   -2.649190     1.149200     0.731811
Co    2.199920     0.764381    -1.800300
Co   -1.740440     1.035600     0.407993
Co   -1.013240     1.645900     0.735616
Co    2.422360    -1.818220     1.025460
Co   -0.298297    -0.796651     0.618310
Co   -1.511800     1.260610    -0.536969
Co    1.520860     0.802088    -0.249096
Co    0.953343     1.125890     1.937740
Co   -1.960520     0.807207     1.355180
Co   -0.359566     0.516844     2.847460
Co   -1.370680    -1.629320    -1.548930
Co   -0.656013    -1.027860    -1.227290
Co    0.124698     1.460390    -1.474810
Co   -1.247890     1.405120     1.676080
Co    1.505970     0.485896    -1.184210
Co   -2.478840    -0.507802     0.371626
Co    1.553990     2.046760     0.394166
Co   -2.662180     0.207872     1.030150
Co   -1.172750    -2.262040    -0.807246
Co    0.460833    -1.993570    -0.348404
Co    0.066269    -0.418302    -0.899924
Co   -2.386300     2.319560    -0.496295
Co   -0.628336    -0.086949    -1.517100
Co   -0.532486     1.995090     1.988800
Co    0.616355    -1.129350     0.753153
Co    1.174110    -1.694650    -0.955069
Co   -0.059716     2.492340     0.113367
Co   -0.563161     1.794840    -2.104340
Co    0.454889    -2.763870     1.168090
Co    2.092210    -1.736210     0.106423
Co    0.025976     1.220140     2.267800
Co   -0.844397    -0.006884     0.359315
Co    0.463045    -2.311010    -1.286990
Co    2.257220    -0.876754     1.220360
Co   -2.238620     0.664926    -0.867950
Co   -1.309660     0.555429    -1.192050
Co    1.106670    -0.375331     2.765460
Co   -0.456356    -1.976620    -1.422960
Co   -1.773850    -0.669632     2.211510
Co    1.502750     1.108790    -2.403550
Co   -0.825020    -2.358700     0.110910
Co    2.236800     1.402280     0.071940
Co    0.965671    -1.218420     1.666100
Co   -1.939960     1.748930     1.062110
Co    1.529050     1.112100     0.682699
Co   -0.667026    -1.486080     1.211650
Co    0.806306     0.507074     0.358961
Co   -1.269640     1.203080    -2.413860
Co    2.071900     0.074306     1.412010
Co   -1.041110     0.703223     1.015820
Co    1.307720    -1.317310     2.568080
Co    1.007330    -3.006710     0.390789
Co    0.091675     0.213971    -2.115350
Co    1.348340    -0.524377     1.084770
Co    2.790620    -1.434750    -0.511778
Co    2.242500     1.709770     1.002250
Co    0.078694    -0.103532     0.031995
Co   -1.568810    -0.617078     0.034440
Co    0.136463     2.388780    -1.773980
Co   -0.144886    -0.174403     2.186390
Co   -1.684820     2.906160    -0.179109
Co   -1.697830     1.967590     0.115263
Co   -1.944790    -1.307280     0.634999
Co   -2.138550    -0.596602     1.294230
Co   -1.923450     1.852050    -2.072940
Co    0.157148     2.704000    -0.839619
Co    0.235164     0.522182     1.607010
Co    0.837022     1.447100     0.074149
Co   -2.199050     1.607240    -1.152520
Co   -1.736720    -2.008600    -0.027508
Co    0.431267    -0.184011     0.946167
Co   -1.604820     0.700678     2.273740
Co   -1.468520     2.192720    -0.820211
Co   -0.115864     0.604834     0.687064
Co    0.670761    -2.921840    -0.529195
Co   -2.268500    -0.276951    -0.576729
Co    0.609935     1.212470     1.014100
Co   -2.433110     1.375750    -0.212822
Co   -0.311474    -1.568080     2.134750
Co    0.098178     0.522218    -1.181620
Co   -0.586369     0.562495    -2.734030
Co   -2.465910     0.434662     0.081449
Co   -2.283150    -1.219530    -0.287768
Co   -0.590609     0.855467    -1.798080
Co   -1.229060    -1.450970     2.457910
Co    1.714040    -0.143693    -0.441325
Co    2.397690    -0.182122    -1.978250
Co   -2.311570     0.109518     1.945020
Co    1.693590    -0.623378     2.000810
Co    0.186546    -0.263412     3.093910
Co    0.984439    -1.372180    -2.613120
Co    1.327360     1.812200     1.335240
Co    0.110621     0.838107    -0.248891
Co   -0.863414    -0.777353     1.863470
Co    0.976631    -1.064160    -1.693640
Co    1.384150    -2.331180    -0.211159
Co   -0.619433     0.225417    -0.577518
Co   -2.608700     2.085470     0.430025
Co    0.396979    -0.973624     2.452850
Co    1.532380     1.430310    -1.483630
Co    0.090986    -0.082434    -3.039430
Co   -1.021910    -1.406930     0.294349
Co    0.399392     1.908290     1.666310
Co    1.188390    -2.002880    -1.885920
Co   -2.025250    -0.042937    -1.518650
Co    0.808122     0.818424    -1.792620
Co   -2.141470     2.542460    -1.421430
Co   -0.755544     2.812570    -0.498382
Co   -1.986050     0.904548    -1.804840
200

Co     2.069432    -1.340357     0.516998
Co    -1.267126     0.878049     1.568158
Co     1.607925    -2.963200     0.128997
Co    -1.343541     0.787126    -2.570682
Co     1.225882    -1.028177     1.002240
Co     0.096873    -2.793391    -0.609784
Co    -0.486335     0.249586     1.609164
Co    -1.994039     1.571496     1.584694
Co     2.443659    -0.248807    -0.762027
Co     0.183779    -0.709608    -2.004932
Co     1.366723     1.057541    -0.435483
Co     2.091483    -0.601682     1.205760
Co     1.706580     0.089615    -0.286442
Co     1.705126     0.117452     1.594972
Co     1.893932    -2.017578    -0.184521
Co    -0.553838     0.437928    -3.023709
Co    -2.191003     0.600974    -1.141435
Co     1.753287    -2.288597     0.863590
Co    -0.989236    -0.876048     1.014426
Co    -0.005254     3.150681    -0.224335
Co    -0.643601    -1.634940     0.609076
Co     1.155854    -2.193632    -1.283170
Co     2.388040     0.287091     0.916478
Co     1.507408     1.943695    -0.198900
Co    -0.772422     1.552361    -1.553460
Co    -0.707906     1.650021     0.190975
Co     0.829686    -0.127649     1.455649
Co    -1.691180     0.420242    -0.247481
Co    -1.807720     2.496761    -0.667851
Co     1.833894     0.803911     0.382369
Co     0.034824    -2.237515     1.049581
Co    -1.250575    -1.717178     1.258829
Co     1.024338     1.379448     0.385549
Co    -0.187714    -3.057212     1.367219
Co    -0.828089     0.752321    -0.066238
Co     0.315696     1.303450     1.157385
Co    -1.008569    -1.501913     2.176558
Co    -1.485367     2.181479    -1.545160
Co     1.336541     0.951356     2.039031
Co    -1.108220    -0.918308    -0.911821
Co     1.125259    -1.673201     2.245106
Co    -0.537292     2.618566     0.370800
Co    -2.388743     0.322724     0.502019
Co    -0.989872     2.815095    -0.499099
Co    -0.009481     0.912637    -1.509589
Co     0.397725    -0.019110     3.048646
Co     0.713327     2.622948    -0.223983
Co    -0.339241    -2.021095    -1.991643
Co     0.486378    -1.109259    -0.184454
Co     0.574141     1.646321    -0.407668
Co    -0.675139     0.006628     0.707274
Co     1.115378    -0.378745    -1.805793
Co     1.023142     2.187744    -1.093730
Co     1.062192     0.116492     2.341884
Co     1.700069     0.902071    -1.734338
Co     0.561917    -0.380652     0.444814
Co     1.027553    -1.079245    -2.520108
Co     0.964077    -2.377345    -0.403126
Co     0.592394    -0.916439    -1.160772
Co     0.249754     0.396435     0.875365
Co    -0.355297     1.284871    -0.627638
Co    -0.504011     0.365242    -0.845567
Co    -1.221774    -1.117513     0.038703
Co     2.314482     1.341423    -0.211163
Co     0.665919     0.906557     2.728523
Co    -2.049600     2.169511     0.939169
Co     0.297383    -0.000366    -1.360997
Co     0.496080    -1.099718     1.651110
Co    -1.179087     1.819541    -2.338988
Co    -1.177781     2.544109     1.125571
Co     0.223273    -2.574828    -1.518215
Co     0.854189    -3.090517    -1.021422
Co    -0.360494    -0.812495     0.311895
Co     0.416166     0.671547     1.792612
Co    -1.919876    -1.218946     0.777486
Co    -1.429969    -0.004576     1.400014
Co    -0.592170    -0.309417    -1.568725
Co     0.339349    -1.872987    -0.915785
Co    -1.204553     0.202647     2.272814
Co    -1.089172     1.895291     1.819412
Co     1.108855     0.673825     1.093321
Co     0.536110    -1.636095    -1.851753
Co     1.211566     0.338501    -1.127302
Co     1.435484    -0.842516    -0.019008
Co    -2.584184     0.104042    -0.482768
Co     1.289755     1.077830    -2.605439
Co     0.718015    -0.136170    -2.647083
Co    -1.455375     2.313114     0.181745
Co    -0.680040    -1.025885    -2.201148
Co    -1.616464     1.378891    -0.045528
Co     0.744260    -0.284682    -0.453856
Co    -0.209487     2.209953    -0.402648
Co    -0.743638    -2.376386    -0.079083
Co    -0.613835    -2.276858     1.799713
Co    -2.256646    -0.410513     1.211144
Co    -0.055863    -0.525181     1.202606
Co    -2.558823    -0.659408     0.242522
Co    -1.992351     1.615646    -0.854133
Co     0.939741    -1.839217     1.265804
Co     1.140547    -1.710170     0.311805
Co     0.789136    -0.818326     2.616915
Co    -0.064680     0.209985    -2.164670
Co     0.329520    -1.336779     0.792385
Co    -1.669580    -0.345635     0.511606
Co    -0.180469    -0.619024    -0.719844
Co    -2.222402     1.319371     0.643618
Co     0.745971    -3.299908    -0.083730
Co     0.102504     1.099125     0.199342
Co     2.352791    -0.999140    -1.443267
Co    -0.984016     1.165590     2.552315
Co    -1.686718     1.187507    -1.781628
Co    -0.600119     2.541139    -1.330128
Co    -2.019443    -1.252560    -1.157162
Co     1.368705     1.850000    -1.940795
Co    -0.120878    -2.893883     0.432170
Co    -0.795775    -0.574291     1.936541
Co     2.183009     0.631291    -0.920341
Co     0.225859    -2.059928     0.146232
Co    -0.444719     1.138468    -2.336527
Co    -0.040930     0.133164    -0.026978
Co     1.422519    -3.117209     1.079441
Co     0.293164     2.029646     0.443327
Co    -0.465375    -1.528445    -0.361809
Co     1.203193     1.633499     1.326965
Co     0.727511    -2.794388     1.573657
Co     1.387513    -1.334111    -1.578117
Co     0.336127     3.009175     0.653562
Co    -1.469294    -0.661229    -1.781086
Co    -0.946270    -0.180128    -0.283717
Co     0.188792     1.917050    -1.274974
Co     0.796015    -2.614631     0.630114
Co    -2.747566    -0.884777    -0.690836
Co     1.987192    -0.018588    -1.570890
Co    -0.238288     0.506010     2.540846
Co    -1.218918     0.926862    -0.896071
Co    -2.099751    -0.117329     2.100700
Co    -2.456014     1.003065    -0.258170
Co     0.070594    -1.420998    -2.688487
Co     0.904047     1.297021    -1.300632
Co     1.789898    -2.794510    -0.772653
Co    -1.546975    -1.957898     0.328809
Co     1.860152    -1.548428     1.467420
Co     0.758122     0.517987    -1.961636
Co    -2.143734    -1.435032    -0.197732
Co    -1.646955    -0.969183     1.685553
Co     2.318801    -0.438572     0.221744
Co    -1.296520     1.601510     0.918501
Co     2.675126     1.128011     0.591690
Co    -1.451129     0.675374     0.692017
Co    -0.077751     1.533105     2.725246
Co     0.318083     2.831304    -1.078197
Co     0.097583    -0.256113     2.084329
Co     0.500717     1.525704    -2.179609
Co    -0.560736     1.023215     0.877327
Co     1.527910    -0.609315    -0.890202
Co     0.596189     2.402128    -1.963490
Co    -2.198594     0.554582     1.402331
Co     0.374037     0.733779    -2.830497
Co    -1.047143    -0.134034    -2.367780
Co     1.895047     1.762185     0.634781
Co    -2.335533    -0.288797    -1.303407
Co    -1.401110     0.049018    -1.082577
Co     2.590921     0.479041    -0.091247
Co    -0.860945    -2.597653     0.865176
Co    -0.575445    -2.212280    -1.036883
Co     1.433902    -0.739360     1.956002
Co    -1.129526     1.887410    -0.675004
Co    -1.822268    -0.552257    -0.446675
Co     2.061467     1.039837     1.297089
Co    -0.538956    -0.331403     2.846170
Co    -1.166599    -1.627955    -1.559253
Co    -0.460323     1.901725     1.131284
Co    -1.834515     0.256161    -1.992665
Co     1.230020    -1.469168    -0.633881
Co    -0.217526     2.155620     2.014043
Co    -0.882913     0.578545    -1.692373
Co     0.512210    -3.435704     0.895574
Co     0.917315     0.486543     0.221535
Co    -0.139752    -1.148318     2.409689
Co    -0.248986    -1.236574    -1.368372
Co     0.605041     1.551365     2.076191
Co    -0.364551    -1.388669     1.455478
Co    -0.334195     2.876907     1.286210
Co    -1.386481    -1.838303    -0.586021
Co    -0.379769     1.274545     1.833635
Co     1.883869    -0.732622    -2.260238
Co     2.026111    -1.843979    -1.072031
Co    -0.195517    -0.471442    -2.861576
Co     0.443552     2.285257     1.358146
Co     1.185857     2.387603     0.642746
Co    -2.341764     1.962915    -0.036096
Co    -1.423893    -0.718717     2.646740
Co     1.530755    -0.117289     0.741446
Co     1.600534     0.166566    -2.397242
Co     2.157701    -1.183777    -0.419505
Co     1.862755     1.638279    -1.045067
Co     0.500092     0.686847    -0.619799
Co     0.305799    -1.978534     1.964763
Co    -1.941728     0.866806     2.296390
Co    -0.285723     2.136740    -2.118757
