33
Structure: R26 Stoichiometry: C7H22P2OOs+
Os -0.000267 -0.004691 -0.186064
H -0.454476 0.000882 -1.927739
H  0.436890   -0.004142  -1.931177
P  -2.316333  -0.311353  0.099088
P  2.316011   -0.313409  0.097900
C  3.304438   1.162056   0.607750
H  4.368408   0.910373   0.764542
H  3.217578   1.938228   -0.170571
H  2.876508   1.563875   1.541041
C  2.733284   -1.539387  1.411478
H  2.260950   -2.500574  1.152659
H  3.825615   -1.667268  1.512476
H  2.305581   -1.190868  2.365300
C  3.278248   -0.951521  -1.345707
H  3.219713   -0.218825  -2.168080
H  4.337297   -1.127783  -1.085610
H  2.817281   -1.894203  -1.684057
C  -2.738373  -1.401706  1.525874
H  -3.829533  -1.548359  1.613400
H  -2.235585  -2.371534  1.382138
H  -2.345771  -0.942570  2.447432
C  -3.341775  1.189454   0.432325
H  -3.254884  1.879783   -0.423122
H  -4.403668  0.933872   0.596729
H  -2.940133  1.698056   1.324346
C  -3.237701  -1.115896  -1.286638
H  -2.751865  -2.078580  -1.515826
H  -4.298168  -1.285178  -1.027751
H  -3.176828  -0.472502  -2.180501
C  0.003805   1.906324   0.007157
O  0.004608   3.068059   0.162050
H  -0.008858  -1.730524  -0.269503
H  0.010657   -0.204657  1.460062
33

C      0.931949     -1.664594      0.073405
P     -1.946034     -0.844615     -0.958613
H     -2.283239     -2.870926      0.349613
C      3.022700      0.362731      1.935409
O      1.505728     -2.690060      0.108576
H     -0.582186     -0.281837      1.403639
H      3.214878      1.809728     -0.822949
H     -3.467438      0.999635     -0.508952
H      1.988425      3.091765     -0.579278
H     -1.446161     -3.222589     -1.186251
H      0.531572      1.852265      3.082804
H     -3.231817     -2.958457     -1.181934
C     -2.271691     -2.650740     -0.730834
H     -2.106210      0.430420     -3.038151
H      3.553485     -0.297896      1.229861
H     -1.346480     -1.169247     -3.310235
H     -4.394404     -0.533427     -0.755952
H     -3.133231     -1.047266     -3.128376
H      2.547943     -0.270818      2.703015
H      3.415271      2.992184      0.519106
H     -3.520968     -0.222926      0.791876
C      1.061443      2.434655      2.311216
Os      0.029840      0.013298     -0.035846
C      2.681705      2.406630     -0.063584
H     -0.741990      1.566706     -0.218751
C     -3.494701     -0.081895     -0.301128
H      0.338628      3.118183      1.837654
C     -2.163214     -0.641963     -2.788763
H     -2.280855      3.224367     -2.295559
H      3.742377      1.049706      2.415130
P      1.696326      1.272662      1.022678
H      1.880704      3.010317      2.777701
H     -1.855479      2.830189     -1.803597
