54
Structure: R11 Stoichiometry: C24H25NbN3F+
C -1.480751 3.821105 -1.641722
H -1.054483 4.454020 -2.435819
H -1.653620 4.463378 -0.758311
H -2.463388 3.440119 -1.968625
C -0.547608 2.679672 -1.312387
C 0.814041 2.747894 -1.620821
H 1.149798 3.621805 -2.185251
C 1.836082 1.861394 -1.181704
C 3.260046 2.249038 -1.539968
H 3.867129 2.394381 -0.629496
H 3.273220 3.177648 -2.129644
H 3.755841 1.452548 -2.121489
C 2.789582 0.123688 0.129667
C 3.529547 -0.825763 -0.601279
C 4.639224 -1.455683 -0.019968
H 5.201574 -2.196532 -0.598516
C 5.028395 -1.143122 1.290033
H 5.893416 -1.639096 1.742051
C 4.301074 -0.185828 2.015792
H 4.600907 0.073313 3.037068
C 3.191343 0.444272 1.441418
C -2.211117 1.320366 -0.029852
C -2.776363 0.017876 -0.218363
C -3.791147 -0.436897 0.659225
H -4.197795 -1.441764 0.515206
C -4.280436 0.393584 1.661715
H -5.068677 0.042450 2.334662
C -3.768659 1.710026 1.799766
H -4.171234 2.365006 2.580495
C -2.746462 2.173681 0.985580
C 0.229082 0.109611 3.406153
C 0.420140 -1.860988 -2.016492
H 1.296953 -1.500545 -2.564896
C -0.750932 -2.105064 -2.708994
H -0.797225 -1.890399 -3.782100
C -1.892353 -2.713596 -2.074572
H -2.771287 -3.029334 -2.641253
C -1.821239 -2.898799 -0.716154
C -0.727934 -2.440348 0.089831
H -0.697067 -2.809718 1.119886
C  0.529832  -2.078458  -0.586579
H  1.502616  -2.339504  -0.151120
N  1.630827  0.764496   -0.425152
N  -1.030419 1.561855   -0.740687
N  0.041226  -0.092608  2.007962
Nb -0.266225 -0.126696  0.250481
H  -0.273629 -0.686567  3.991774
H  1.307063  0.078447   3.668431
H  -0.176204 1.084957   3.745639
H  2.615222  1.189330   1.996576
H  3.231952  -1.067226  -1.625495
H  -2.556616 -0.544810  -1.134478
H  -2.318475 3.169215   1.131844
F  -2.856945 -3.483193  -0.062630
54

C     -2.696043     -0.783697     -2.027391
H      3.361879      1.971296     -1.841461
C     -0.051589      1.521853     -1.071433
C     -1.463891     -1.753655      0.988835
C      5.698716     -0.474351      1.325479
N      1.551672     -1.260121      0.747290
H      3.603640     -2.693893     -0.239728
H      4.039612      0.588416     -2.766702
H      4.288849      0.694767     -0.992118
C      3.929063     -1.842289      0.365847
H      6.763867     -0.269934      1.474034
C      4.731911      0.372784      1.886063
H     -0.608329      4.131595      1.104017
C      2.959304     -0.999595      0.938334
H      1.224223     -3.289410      3.442349
H     -1.725446      5.077314     -0.926361
H      0.432064      1.882211      1.024469
H     -3.988833     -0.446303     -3.727682
C     -4.007000      1.399907     -0.848638
C     -1.253329      4.089471     -0.967908
C     -1.265443      3.350625     -2.160819
H     -5.152893      1.510398     -2.689580
H     -3.495233     -2.336896      0.513624
C     -0.035636      2.285728      0.115806
H     -4.499797      2.264779     -0.392642
H     -2.901253     -2.925542      2.107639
C      1.827640     -2.662683      2.769689
C     -2.886260     -2.084675      1.397715
N     -1.227732     -0.979232     -0.065782
Nb      0.770068     -0.498074     -1.087980
H      2.605638      0.771715      2.123795
C      3.563723      0.881144     -1.809498
C     -0.663813      2.084189     -2.212132
H      6.038614     -2.238085      0.106539
H      2.624748     -3.278152      2.318851
C     -4.369048      0.980248     -2.138732
C      5.291175     -1.578228      0.559629
H     -2.159758     -1.619938     -2.483384
C     -2.998417      0.733153     -0.147272
N      2.356815      0.164067     -1.586648
F      0.277515     -1.636827     -2.539027
C      0.952370     -2.038833      1.699660
H     -2.683619      1.080989      0.840559
C     -3.714438     -0.113232     -2.721016
H     -0.698863      1.520853     -3.153643
H     -1.750065      3.760153     -3.054560
C     -0.629003      3.557251      0.170126
H     -3.367019     -1.215256      1.878980
C     -0.416657     -2.299151      1.776752
C      3.366807      0.112243      1.695342
H     -0.727608     -2.959129      2.589948
H      5.038484      1.244942      2.473200
C     -2.334151     -0.361508     -0.735234
H      2.335110     -1.884148      3.364990
