39
Coordinates from ORCA-job mol
  C   2.14156830195641     -1.29348060521416     -0.95757067905303
  C   2.24700760711555      0.14233347609941     -0.50586093650040
  N   1.04338872702218      0.68595310415767     -0.22185519901871
  C   0.89757296527426      2.00324864849573      0.19432967469119
  C   2.09375233592471      2.78900864784732      0.28220632952698
  C   3.32492176488136      2.22699525794963     -0.01469668283423
  C   3.42986421449946      0.87038576546755     -0.41268411738744
  C   -0.41468565587209      2.42184591804414      0.53889610156852
  P   -1.72895705533737      1.36989135386445     -0.08676456007610
  H   4.39410438883000      0.41090473720723     -0.64414007610268
  H   2.01554759488035      3.83423341442195      0.59443444806665
  H   4.23044786169423      2.83957470692107      0.06107428757122
  C   0.77151950517073     -3.30565077713550     -0.81971604154894
  C   1.62520412919640     -2.28352760047943      1.21254788356364
  H   -0.58620193520706      3.47916027797597      0.77793436121436
  H   3.11828334116379     -1.81373057062002     -0.90082176198738
  H   1.79253913157996     -1.31229332047328     -2.00470932781361
  C   -2.37448438095365      2.03978448537501     -1.68896016087244
  C   -3.17725535922990      1.64701934153411      1.02959756453653
  H   -3.20040386198274      1.40394670099854     -2.05196954383466
  H   -2.72571782167635      3.08009680871532     -1.57067572427195
  H   -1.55242767030124      2.00864301819123     -2.42160586033589
  H   -4.04100880702443      1.06397521687219      0.66870638844135
  H   -2.92580808692839      1.31399209358725      2.05001475980488
  H   -3.44703280439002      2.71753432492179      1.06366288079101
  H   2.52711447353895     -2.92872046225583      1.17221107603511
  H   1.87157642421579     -1.32632983838760      1.69366410813994
  H   0.84081610841256     -2.78264715239870      1.80103975628715
  H   1.67094180241586     -3.94887822037930     -0.91756154340895
  H   0.01177103493782     -3.82890951607527     -0.22062069509309
  H   0.35360313945659     -3.08938725264281     -1.81348348684775
  C   -2.08990509620891     -1.70656155341050      0.00098802708439
  O   -3.05088180975026     -2.38495566492066      0.02691652376577
  Ru  -0.60689736425803     -0.60601946718620     -0.09131251822389
  H   -0.72348988353592     -0.75718225033382     -1.67431224162697
  O   -0.19928336645442     -0.04572652320111      2.16623659808879
  H   -1.02943439234246     -0.20830869311707      2.64988349495872
  H   -0.22935269685405      0.94192520512638      1.95999630422654
  N   1.10760319614222     -2.02587303554773     -0.15370941152654
39

H     -3.146353      1.464935      0.978411
H      2.201517     -2.540040      1.244179
C      2.504604     -0.085097      2.489262
H     -0.153476      3.632634      0.812663
O      0.619949      0.982510     -1.768791
H     -1.644815     -0.737505      0.713009
H      0.392244     -4.475021     -0.320965
C     -0.346463     -3.673429     -0.497269
C      1.280622     -1.932845      1.183123
O     -2.831384     -1.006503     -2.413228
C      1.769271      2.202564      2.186130
H      2.542650     -2.957361     -1.416054
C      2.613963      1.274783      2.810918
H     -1.126880     -3.695301      0.280418
Ru     -0.702257     -0.093807     -0.475698
H     -1.216417      2.506291     -1.951157
H      0.543881     -2.362260      1.889780
H      3.356774      1.609509      3.542071
H      0.507290      2.686182     -0.605099
H     -2.883466      2.175206     -1.345947
C     -1.919169      2.652206     -1.115706
C     -2.001948     -0.625779     -1.673150
C      0.842545      1.743774      1.243178
H     -0.829438     -3.830315     -1.476427
H      0.451033      0.688286     -2.680496
C      1.824938     -2.166067     -1.695850
C     -0.011685      2.625984      0.372280
P      0.429001     -2.003011     -0.496178
H     -2.078725      3.732440     -0.916595
N      0.727109      0.420065      0.970711
C     -2.227505      2.015250      1.226173
H      1.838885      3.271436      2.408113
H      1.403032     -2.388417     -2.691097
H     -1.740279      1.514340      2.076101
H     -2.474013      3.063234      1.499749
C      1.532642     -0.496326      1.565543
H      3.157078     -0.827848      2.957110
N     -1.320127      1.978496      0.059815
H      2.316783     -1.180476     -1.748341
