33
start-aligned_to-ts.xyz
C -0.956926 2.641816 1.055538
N -0.398925 1.477011 0.68755
N 0.672003 1.263237 1.494032
C 0.793408 2.290434 2.374377
C -0.235077 3.200279 2.129254
B 1.557237 0.0 1.310932
N 0.672003 -1.263237 1.494032
N -0.398925 -1.477011 0.68755
C -0.956926 -2.641816 1.055538
C -0.235077 -3.200279 2.129254
C 0.793408 -2.290434 2.374377
PT -0.847841 0.0 -0.853151
N 2.128454 0.0 -0.134761
N 1.296987 0.0 -1.208504
C 2.060895 0.0 -2.312933
C 3.423153 0.0 -1.952394
C 3.419371 0.0 -0.557629
H 1.591009 0.0 -3.296353
H 4.234951 0.0 0.16475
H 4.288575 0.0 -2.613453
H 2.458954 0.0 2.116813
H 1.600706 -2.296034 3.105994
H 1.600706 2.296034 3.105994
H -0.43213 -4.135407 2.651398
H -0.43213 4.135407 2.651398
H -1.837384 -3.012826 0.530725
H -1.837384 3.012826 0.530725
H -1.159884 -1.053791 -1.969728
H -1.159884 1.053791 -1.969728
C -2.877424 0.0 -0.466082
H -3.132326 -0.896226 0.127896
H -3.132326 0.896226 0.127896
H -3.48006 0.0 -1.3883
33

C     -2.521877     -1.654954     -0.623366
C      3.996938     -1.067284     -0.296550
C     -1.176404      0.953236     -2.686143
H      0.428814      3.663482     -1.727442
H     -3.194216     -1.094842     -1.289560
H     -2.981088     -2.574659     -0.237984
H      0.032417     -2.786163     -0.018881
C     -0.037016      2.702848     -1.943425
H      2.691862     -2.883652     -0.695445
N     -0.413139      0.535281     -1.659271
H      1.977579      2.485722      0.007550
N      0.284113      1.606940     -1.209480
B      1.258422      1.509360     -0.009125
C      0.868050      1.970811      2.510400
H      4.091464      1.166629      0.073702
C     -0.962693      0.757251      2.767132
Pt     -0.180601     -1.380684     -0.705937
C     -0.048449      1.572794      3.477470
H      5.024087     -1.427320     -0.274328
H     -2.211814     -1.000806      0.212981
N      0.492890      1.410254      1.321663
H     -1.849937      0.239815      3.139566
C      2.831457     -1.820296     -0.509767
H     -1.812423      0.245516     -3.218717
H     -1.708606     -2.060100     -1.365458
C     -0.977043      2.329752     -2.903739
H     -0.059577      1.841772      4.533578
N     -0.633926      0.663324      1.471983
N      1.759591     -1.001573     -0.465694
H     -1.441515      2.961038     -3.659682
C      3.549282      0.242965     -0.123019
H      1.749830      2.608986      2.572328
N      2.197379      0.265225     -0.228228
