67
Structure: R8 Stoichiometry: C29H33ON3Fe+
Fe -0.730822 0.521675 0.030762
O 0.707087 1.530512 -2.278575
N -2.176305 -0.420728 -0.990913
N -0.702285 -2.342604 0.538095
C 0.023318 1.490044 1.723369
C -1.092913 0.662238 2.131599
C -2.255581 1.111150 1.433761
C -3.650598 0.586750 1.595967
H -3.648310 -0.451031 1.961763
H -4.202854 0.607815 0.642600
H -4.203395 1.214377 2.321275
C -1.882079 2.204828 0.569241
C -2.819534 3.038096 -0.255143
H -3.243351 3.864398 0.348799
H -3.660888 2.438478 -0.638480
H -2.304300 3.488264 -1.119955
C -0.475712 2.447370 0.770667
C 0.317161 3.589549 0.199573
H -0.069733 3.906869 -0.781552
H 1.378207 3.321287 0.073891
H 0.264483 4.458263 0.882937
C -1.048776 -0.436422 3.153434
H -1.295938 -0.048220 4.159805
H -0.047225 -0.893970 3.204461
H -1.769636 -1.231798 2.900798
C 1.387293 1.528000 2.343214
H 2.181246 1.641173 1.587867
H 1.587853 0.611111 2.913828
H 1.464647 2.379209 3.047969
C 0.163270 1.038851 -1.362650
C -2.797158 0.255927 -1.991857
H -2.234591 1.102707 -2.396279
C -4.062459 -0.046402 -2.470895
H -4.501435 0.545416 -3.277872
C -4.756602 -1.129243 -1.861006
H -5.773304 -1.385879 -2.179127
C -4.130506 -1.870483 -0.884847
H -4.626941 -2.729167 -0.421031
C -2.781636 -1.566696 -0.471546
C -2.109997 -2.390304 0.428142
H -2.567081 -3.307721 0.799236
C 0.070847 -1.238146 0.279157
C 0.087213 -3.464624 0.792240
H -0.353410 -4.434333 1.012998
C 1.389729 -3.076949 0.655816
H 2.320473 -3.632940 0.741481
N 1.371922 -1.723983 0.329517
C 2.539399 -1.015517 -0.113017
C 3.539099 -0.651521 0.811472
C 4.638226 0.086607 0.335170
H 5.413965 0.394776 1.046636
C 4.768032 0.435491 -1.018267
C 5.923141 1.283837 -1.499433
H 5.593212 2.323174 -1.686843
H 6.336692 0.898943  -2.447940
H 6.736049 1.319602  -0.755183
C 3.795333 -0.030101 -1.922324
H 3.905626 0.185148  -2.991405
C 2.687921 -0.778785 -1.499793
C 1.741666 -1.396734 -2.503242
H 1.969038 -2.474298 -2.612816
H 1.851352 -0.919021 -3.488723
H 0.688389 -1.316971 -2.190549
C 3.494687 -1.098770 2.254655
H 4.091571 -2.021509 2.385742
H 2.469481 -1.324891 2.584732
H 3.924760 -0.333964 2.922109
67

C      0.220034      1.009647      3.158743
H      1.568532     -0.365322     -3.965002
C     -4.723663     -0.665233     -3.647563
H     -5.654686     -1.020569     -4.100040
C     -1.166520      2.888981     -0.791274
C      0.811766     -2.609406     -0.165626
H      1.050588     -4.477377      0.884134
C      0.380969     -3.596005      0.882861
H     -0.990128     -3.204767     -3.082260
C     -0.213164      0.965579     -0.013749
C     -0.448417     -3.662200     -2.238451
C      1.938471      2.531857      2.251208
H      1.655576     -2.119175     -4.261270
H     -1.714912      3.526168     -1.482622
H      2.007129      4.409702      1.153799
H      3.636119      2.883420      3.536063
H      2.620304      2.057558      6.551358
H      3.366178     -1.707021      1.402869
H      3.001638      0.878991     -0.619278
H     -3.442181     -1.496577     -5.193132
C      2.468077      3.404839      1.136200
H      1.793838     -1.409876      2.191769
C     -4.720015      0.065780     -2.449495
N     -2.310128     -0.519845     -3.760486
N     -0.890808      1.546658     -1.030023
C     -1.072607      0.248266      3.005981
O     -2.598041     -1.774157      0.421349
H     -5.658795      0.297228     -1.934047
N     -0.032671      1.964502      0.909422
H      0.060541     -1.312556     -4.082477
H     -0.257757      0.740534     -2.888115
H      2.251515      2.970146      0.146687
H      0.412588     -3.148659      1.889937
C     -1.613434     -1.343639     -0.050907
Fe     -0.095652     -0.826042     -0.725696
C     -3.487097     -0.928339     -4.253064
C      2.837318      0.283482     -1.531639
H     -1.465435     -0.056302      3.989392
H     -0.916099     -0.658582      2.396344
H      4.079043      1.668563      5.604417
C      1.710339     -1.508382      0.031847
C     -2.302444      0.177525     -2.597005
H     -1.838832      0.844258      2.483296
H     -1.197822     -4.060088     -1.534610
H      0.136294     -4.518304     -2.628806
C      1.152158     -1.598940     -2.237434
H     -0.646380     -3.953930      0.706813
H      3.827727     -0.062215     -1.886271
C      2.674443      2.366007      3.436689
H      2.634688     -0.080159      1.372557
C      2.222482      1.544955      4.483251
C      0.711663      1.842935      2.130890
C      2.408913     -1.156491      1.313643
H      3.557691      3.537667      1.233820
C     -0.965952      0.521049     -2.076018
C      0.444743     -2.654259     -1.573079
C      1.101650     -1.332243     -3.715084
H      0.626469      0.230384      5.126474
C      0.995571      0.878262      4.322376
H     -0.616542      4.063130      1.039438
H      2.425076      0.956201     -2.302883
H      2.979049      0.363926      6.141762
C      1.919277     -0.873802     -1.258542
C     -0.626448      3.154498      0.441092
C     -3.502896      0.490812     -1.915687
H     -3.466653      1.044634     -0.972474
C      3.021245      1.397900      5.758504
