50
Structure: R13 Stoichiometry: C20H25P2RuON+
C -4.056788 -0.340323 -0.361332
C -2.751814 -0.231625 -0.815448
C -2.026449 0.985079 -0.550115
C -2.646732 2.042960 0.222340
C -3.999034 1.877991 0.659338
C -4.684380 0.717203 0.363142
C -1.863507 3.174653 0.513342
C -0.525106 3.245536 0.085806
C -0.017787 2.136920 -0.697265
C 1.354286 2.133655 -1.138245
C 2.162309 3.208853 -0.803218
C 1.660319 4.310504 -0.047293
C 0.351243 4.334533 0.390070
H -4.619489 -1.261097 -0.551957
H -4.472259 2.678075 1.238961
H -5.718807 0.590282 0.699143
H -2.293812 3.999188 1.093982
H 3.210757 3.215567 -1.122081
H 2.332828 5.140919 0.191916
H -0.028466 5.173866 0.982762
N -0.770160 1.071480 -1.014745
Ru 0.811511 -1.366009 0.979028
C -2.019889 -1.352398 -1.494641
H -1.334356 -0.951860 -2.258724
H -2.724592 -2.065522 -1.957556
C 1.842458 0.923729 -1.873330
H 1.056604 0.554550 -2.552192
H 2.758849 1.143627 -2.448880
P -0.949736 -2.340151 -0.293751
P 2.238476 -0.524113 -0.718464
C 3.871771 0.066513 -0.062322
H 4.333745 -0.742077 0.528363
H 4.560207 0.375051 -0.869695
H 3.689752 0.918255 0.613933
C 2.818404 -1.733341 -2.013346
H 3.608376 -1.303994 -2.655402
H 3.208206 -2.639201 -1.518331
H 1.962006 -2.024845 -2.644501
C -2.264343 -3.116628 0.749639
H -3.057812 -3.582775 0.137625
H -1.791225 -3.874180 1.394979
H -2.696818  -2.338807  1.398938
C -0.494247  -3.767588  -1.397253
H 0.081656   -4.505883  -0.813606
H -1.389777  -4.259140  -1.817460
H 0.141679   -3.405483  -2.221474
C 1.796512   -0.633032  2.382709
O 2.327975   -0.139588  3.300358
H -0.029193  -0.061651  1.080038
H -0.101699  -1.987342  2.202121
50

P     -0.124387     -2.130595     -1.222751
C     -2.792935     -1.375064     -0.245821
H     -0.081989     -1.223115     -3.486553
C      1.420813      3.472903      2.331293
H      2.234528      1.378746      3.850825
C     -2.202972      1.105189     -3.144115
H     -1.467929      0.533497     -3.732441
H     -2.365070      2.088118     -3.620437
H     -3.151002      0.541714     -3.131395
N      0.686327      0.326965      0.480965
H      3.523957     -3.296109      0.379477
H      1.809766      3.770330      3.312462
C      3.212262     -0.986842      2.881234
C      3.148121     -2.426249      0.931539
H      0.144431     -4.570056     -1.410473
H     -1.470193     -2.333245     -3.253068
P     -1.593403      1.295669     -1.409672
H      0.706521      1.589057     -2.035960
H     -1.456258     -4.107037     -0.715684
H     -2.410082      2.857774      0.269975
H      0.278919      4.805539     -0.599258
C      1.708050     -1.849068     -1.078609
H     -2.863874      3.424492     -1.374885
H      0.013691     -4.000311      0.301209
C      0.444644      2.691437     -0.194977
H     -0.162019      3.155391     -2.222339
H      1.891170     -0.948177     -1.696045
C      1.684787     -0.481883      1.050366
C      0.553900      4.050930      0.147567
H      2.239481     -2.702360     -1.536642
C     -0.377067     -3.882295     -0.721973
H     -0.709392     -1.713638      1.085456
Ru     -1.124914     -0.585307     -0.020960
H      4.432478     -2.768579      2.646110
C      2.178719     -1.605370      0.332284
C     -0.022033      2.278199     -1.566422
C     -2.777096      2.539306     -0.720065
C      2.220673     -0.170572      2.322399
H     -3.767924      2.070257     -0.599874
H      1.136042      5.514086      1.639670
C     -0.397478     -2.183636     -3.048277
O     -3.846254     -1.871927     -0.392353
H      0.184142     -3.001403     -3.509649
C      1.042504      4.450535      1.397824
H      0.640147      0.673236      3.488819
H      3.615220     -0.740256      3.870773
C      1.285118      2.111405      2.037113
C      1.596679      1.011658      3.029400
C      3.668163     -2.125000      2.198659
C      0.785824      1.702107      0.770675
