45
Structure: R21 Stoichiometry: C11H29N4Ta+
Ta 0.025488 0.072926 -0.091869
N 0.264319 2.078376 -0.135247
N -2.016989 0.263629 -0.328478
N 2.079164 -0.299616 -0.179255
N -0.139742 -0.700283 1.763679
C 0.000913 -1.000564 -2.086500
H -0.948873 -0.784011 -2.601678
H 0.851468 -0.793179 -2.753688
C 0.040813 -2.327363 -1.445080
H 1.037381 -2.771978 -1.304147
C -1.013835 -2.981099 -0.888943
H -2.040642 -2.617088 -1.001361
H -0.875141 -3.918087 -0.339073
H -2.996714 0.343341 -2.223797
C -2.571529 1.016829 -1.446059
H -1.791079 1.634456 -1.922119
H -3.391562 1.688010 -1.111862
H -3.818481 0.212851 0.793831
C -3.062872 -0.478474 0.360304
H -3.610978 -1.158950 -0.328625
H -2.631646 -1.086583 1.169706
H 3.810100 -0.133201 -1.403239
C 3.029146 -0.872197 -1.114188
H 2.536546 -1.213901 -2.035799
H 3.565209 -1.739884 -0.668709
H 3.292930 -0.709261 1.532372
C 2.800528 0.144209 1.016891
H 3.594721 0.877861 0.758457
H 2.117520 0.626281 1.735596
H 2.154144 2.040388 -1.079521
C 1.443544 2.766915 -0.660761
H 1.955218 3.350072 0.134838
H 1.155585 3.481637 -1.460196
H -0.998257 3.778648 -0.363309
C -0.694847 3.038160 0.407002
H -1.597238 2.517811 0.761971
H -0.253552 3.605908 1.254087
C -0.698298 0.103706 2.841369
H -0.955745 1.112643 2.476312
H 0.024064 0.215193 3.678517
H -1.624825 -0.348203 3.257720
H -0.625783 -2.682316 2.383308
C 0.255731 -2.034043 2.184260
H 0.862027 -1.990993 3.114080
H 0.859948 -2.512284 1.398132
45

H      1.723372     -0.455065      2.278059
C     -0.466149     -0.513286     -3.144929
N     -0.103482      0.487621     -2.143977
H     -2.195821     -3.175384     -0.351883
H     -0.508939      2.137774     -3.421268
H     -1.276170     -0.140791     -3.807389
H     -2.782204      0.259426     -1.520242
H     -3.343554     -1.440872     -1.641654
C     -1.919102     -2.378914      0.373284
H     -1.332083      2.564173      0.959091
C     -1.446746      1.479519      1.107158
H      1.383259     -2.211227      2.361922
C      1.457739     -2.409077     -0.454195
H      2.626502      0.396418     -0.885960
H     -2.495404      1.181823      0.945753
H     -1.000649     -2.680391      0.899040
H      0.402040     -0.760268     -3.792892
H     -2.742921     -2.326347      1.119360
H      2.960711      2.145829     -1.053461
H      1.189275      1.575428     -3.445778
N      1.148341     -1.306506      0.444904
H      1.659565      3.754113      0.156508
C     -0.871815      0.973768      2.366981
Ta     -0.098875      0.162681     -0.150189
C      2.635376      1.355588     -0.342522
H      2.898871     -1.625613      1.596748
C      0.308826      1.735563     -2.786986
H      2.120165      2.964043      1.687690
C     -2.953013     -0.667191     -0.946314
H     -0.038087      1.553422      2.790749
C      1.365762      2.951109      0.869534
H      2.549832     -2.478057     -0.648123
H     -0.624198     -0.552773      3.850546
H     -0.815295     -1.434788     -2.655059
H      0.566552      2.488229     -2.028573
H      1.129981     -3.386745     -0.038565
H      0.947300     -2.271874     -1.422756
H      0.392752      3.227740      1.300219
C     -1.176584     -0.205859      2.970748
H      3.407101      1.289679      0.455398
H     -3.753448     -0.464624     -0.199661
N      1.314502      1.656640      0.216732
H     -2.005765     -0.832073      2.624665
C      1.818336     -1.405424      1.730780
N     -1.720034     -1.106828     -0.305783
