21
Structure: R16 Stoichiometry: C10H10Pd+
C 2.110750 1.099630 0.529522
C 2.116595 -0.165610 1.207219
C 2.117258 -1.196938 0.213317
C 2.119785 -0.574734 -1.072627
C 2.114267 0.849427 -0.875332
Pd 0.122975 -0.002849 0.000864
H 2.124507 -2.271033 0.406477
H 2.124479 -0.314380 2.288104
H 2.113909 2.080318 1.008226
H 2.132935 -1.087096 -2.035901
H 2.123117 1.603638 -1.663858
C -1.270222 1.357224 -0.004235
C -1.275247 -1.358697 -0.004272
C -2.650451 1.241145 -0.000212
C -2.655052 -1.236559 -0.000193
C -3.324214 0.003559 0.003194
H -0.864596 2.383775 -0.011748
H -3.263286 2.153781 -0.001566
H -4.421506 0.005614 0.005553
H -3.271672 -2.146656 -0.001470
H -0.875577 -2.387597 -0.011839
21

C     -2.026789     -1.585368     -1.177684
H     -2.218513     -2.756896      0.691308
C      0.018626      2.164463      0.025905
H      2.944047      1.107005      1.316119
H      0.494941     -2.939800      0.558628
H      1.324280     -1.793962     -1.770130
PD     -0.054650     -0.096542     -0.049371
C      0.726322      0.930353      1.810400
C     -0.423531      1.584716      1.259634
H      0.749462      0.385393      2.757306
C     -0.836021     -1.123387     -1.908952
H     -3.053778     -1.300328     -1.414845
C     -1.599647     -2.330234     -0.100630
H     -1.433955      1.600963      1.671583
C      0.313854     -1.777724     -1.358181
H      2.108780      2.563577     -0.790051
H     -0.604656      2.746758     -0.657175
C     -0.128323     -2.357498     -0.124463
H     -0.859185     -0.578423     -2.855854
C      1.917070      1.392142      1.079027
C      1.489920      2.137022      0.001947
