51
Structure: R28 Stoichiometry: C17H28IrP2O2N+
C -3.048370 0.724819 -1.076065
C -2.219473 0.021488 -0.160913
C -2.901101 -0.770729 0.802742
C -4.301786 -0.843233 0.863027
C -5.088241 -0.135699 -0.058805
C -4.449151 0.645418 -1.034389
Ir -0.175950 0.133454 -0.235168
P 0.195003 -2.051856 -0.784229
C 1.947042 -2.243360 -0.181289
C 2.696774 -0.940249 -0.270069
N 1.954037 0.217781 -0.275877
C 2.609569 1.425125 -0.267708
C 4.006064 1.499573 -0.234932
C 4.767807 0.324608 -0.250515
C 4.096851 -0.903188 -0.278600
C 1.758374 2.670374 -0.352959
P 0.017322 2.342527 0.253680
H 4.651493 -1.846283 -0.282817
H 4.487873 2.481829 -0.218334
H 5.861312 0.365745 -0.239620
H 2.249156 3.525694 0.144914
H 1.636510 2.938255 -1.421132
H 1.805191 -2.507118 0.893258
H 2.505838 -3.065289 -0.663395
H -2.579799 1.346220 -1.850485
H -5.047768 1.200829 -1.767520
H -6.181840 -0.194412 -0.019804
H -4.782114 -1.463605 1.630189
H -2.314554 -1.351652 1.527306
H 0.023418 -0.209630 1.835234
O 0.041690 -0.377483 2.853933
H -0.903663 -0.293422 3.081913
H 0.565948 -2.001249 2.868106
O 0.898901 -2.939456 2.756114
H 1.646006 -2.989477 3.376876
C 0.015128 2.887875 2.019214
H 0.445044 3.897979 2.140355
H -1.030853 2.891592 2.371535
H 0.570144 2.148640 2.618940
C -0.968721 3.666620 -0.571857
H -2.022095 3.548464 -0.267679
H -0.614416 4.677032 -0.301057
H  -0.909605  3.529270  -1.663919
C  0.248302   -2.443944 -2.589261
H  0.641251   -3.459730 -2.774073
H  -0.773177  -2.362948 -2.997645
H  0.884094   -1.698511 -3.094294
C  -0.682236  -3.490373 -0.046552
H  -1.764898  -3.361746 -0.209810
H  -0.344857  -4.438641 -0.500841
H  -0.464357  -3.503550 1.034310
51

H      0.334908      0.349339     -1.127975
H     -2.887343      0.838762      2.437883
H      2.182388     -2.104997     -2.229511
C     -3.210472     -3.349097     -2.189778
P      1.721295     -1.575109      0.081151
H      1.297527     -3.529207      1.480593
H     -2.992734      3.005351     -1.007770
H     -3.847529      0.437802      0.970463
H     -3.755592      2.141542      1.555478
H      3.851068     -0.867132      1.203503
H      1.152303      4.238632      2.469578
C      1.518929      3.233383      2.240809
C      3.271677      1.559236      2.241251
N      1.101270      1.028424      1.321166
H      1.032506      2.070974     -2.179920
H     -3.068459      1.300914     -1.603587
H     -0.485218     -1.369249     -2.794249
H     -1.053084      3.673983      1.432229
H      0.286457      1.172140     -3.217830
H     -3.889501     -4.037647     -2.704788
H     -4.184085     -3.557453     -0.261189
H      1.796534      3.583555     -0.813501
H      1.190358     -3.915145     -0.260876
O      1.075907      1.182036     -2.648042
C     -1.434781     -1.544310     -0.845219
H     -2.665617     -1.991757      0.900097
H      3.724650     -1.816279     -1.341510
C     -0.653411      2.701402      1.119146
C     -2.504468     -2.188386     -0.170242
H     -1.593002      2.283739     -1.877544
C     -3.197885      1.195055      1.442120
C     -2.415156      2.079384     -1.174314
H      0.319250      3.280882     -0.504792
H      3.487767      3.576523      3.036872
C      0.631556      2.318069      1.581998
C      1.774766     -3.370413      0.499412
H      2.652577     -0.432016     -1.849424
H      4.287162      1.237506      2.486214
H      2.808155     -3.759141      0.521517
C      2.769369     -0.775268      1.405181
P     -1.686507      1.449009      0.400571
O      0.940500      3.479276     -1.268525
H     -2.026117     -2.922850     -3.956626
C     -1.296548     -1.841474     -2.225222
H      2.563743     -1.355868      2.326419
C     -3.372743     -3.078133     -0.822776
C     -2.166126     -2.722130     -2.887117
Ir     -0.186455     -0.300454      0.194334
C      2.685951     -1.469758     -1.480879
C      2.814826      2.862166      2.549433
C      2.376143      0.669923      1.648378
