39
Structure: R27 Stoichiometry: C7H26NBOOsP2+
Os -0.022037 -0.106704 0.075935
H -0.229586 1.023048 -1.423128
H 0.051665 2.561886 0.408690
P 2.318267 -0.106126 0.308901
P -2.356317 -0.093919 0.256674
C -3.002585 -0.384055 1.963579
H -4.105601 -0.337171 2.001739
H -2.658110 -1.375096 2.301042
H -2.568560 0.375220 2.634592
C -3.249708 1.467555 -0.208237
H -2.989147 1.734523 -1.246865
H -4.345717 1.357958 -0.124177
H -2.921741 2.276713 0.467336
C -3.287563 -1.348814 -0.731806
H -2.915855 -2.351969 -0.465313
H -4.375677 -1.294867 -0.549942
H -3.081142 -1.182162 -1.802138
C 3.121419 1.432129 0.953210
H 4.212444 1.304107 1.068683
H 2.926563 2.255100 0.245845
H 2.670324 1.681685 1.927780
C 2.955156 -1.380005 1.487748
H 2.618235 -2.371734 1.143823
H 4.057667 -1.362384 1.556405
H 2.513893 -1.193716 2.480432
C  3.315283  -0.462150  -1.206892
H  3.086279  0.301559   -1.967622
H  4.399178  -0.466919  -0.994274
H  3.010680  -1.446469  -1.600075
C  0.043625  -1.649722  -1.029650
O  0.087467  -2.633780  -1.669577
H  -0.995361 3.448555   -0.550551
H  0.575546  3.973386   -0.428738
H  1.610179  2.050001   -1.687205
H  -0.093549 2.491640   -2.708153
B  0.397889  2.110209   -1.658079
N  -0.020025 3.138464   -0.473088
H  -0.083089 1.217869   1.241833
H  -0.046719 -1.060287  1.406251
39

C     -1.291855      1.213639     -0.028679
H      1.752528     -0.263650     -1.368471
P     -0.996159     -1.387744     -1.596804
H     -2.322513     -2.101316      0.299475
B      0.318149     -1.755568      2.251811
H     -0.618348     -1.188668      2.774868
H      3.832400      0.997061      0.287526
C      3.266114      1.111735      1.227159
H     -2.146877     -0.162761     -3.355154
H      0.902811     -3.755603      1.643330
H     -2.142464     -1.928828     -3.731555
H      2.380567      3.366400     -0.747530
C     -1.546783     -1.087610     -3.334151
C      1.860811      3.429311      0.222636
H      1.454073     -1.396547      2.497059
H      0.720201      1.031252      3.016400
H     -3.215343     -0.914549     -0.695371
H     -0.804539     -3.793707     -2.152192
H     -3.108422     -2.629062     -1.241640
H      1.514606      2.652961      3.136474
C     -2.571623     -1.808817     -0.733477
H     -0.768350     -3.597399      1.877098
H      0.198451     -0.810970      0.888751
H      3.179899      0.127617      1.717168
N      0.136792     -3.135090      1.891141
H      3.801867      1.811249      1.892458
Os      0.264551      0.267482     -0.486976
H     -0.656343     -0.929491     -3.964835
C      0.857782      2.008690      2.526054
H      1.740053     -0.792860     -0.678094
H      0.777710     -2.940220     -2.259707
C     -0.158826     -3.029983     -1.683995
H      0.884601      3.914063      0.055344
O     -2.256951      1.815438      0.247381
H     -0.130462      2.486114      2.418561
P      1.563062      1.717275      0.848378
H      0.079363     -3.319165     -0.645122
H      0.413575      1.248944     -1.868938
H      2.457756      4.030421      0.931668
