86
File created by wolfsort 
C	1.179271	-0.035808	2.30262
C	1.319675	-0.022323	3.686849
C	0.261223	-0.556917	4.47129
C	-0.882364	-1.022418	3.862134
C	-1.044584	-0.952285	2.430388
N	0.05964	-0.512901	1.678792
H	0.355657	-0.594534	5.562502
H	2.236397	0.359483	4.14332
H	-1.711424	-1.423412	4.452823
C	-2.249469	-1.266179	1.790515
H	-3.105957	-1.535715	2.418193
C	2.308353	0.434743	1.405952
H	3.260258	0.47524	1.958554
H	2.098908	1.448824	1.02466
P	-2.461013	-0.71529	0.113553
P	2.344024	-0.683235	-0.09013
C	-0.240066	-0.50457	-2.446439
O	-0.350673	-0.373163	-3.61054
C	0.11314	2.602328	-0.325862
C	-3.33454	1.016015	0.222938
C	-4.82933	0.978376	0.591971
C	-2.614788	1.748059	1.381146
C	-3.157808	1.772593	-1.110745
H	-5.456845	0.553596	-0.208108
H	-5.002739	0.4095	1.521629
H	-5.177663	2.014803	0.767828
H	-1.525137	1.608299	1.361914
H	-2.833174	2.831492	1.32146
H	-2.96949	1.371973	2.354171
H	-3.393979	2.844734	-0.966907
H	-2.130559	1.69036	-1.496196
H	-3.835338	1.384197	-1.887331
C	-3.674592	-1.921909	-0.740709
C	-4.183115	-1.317543	-2.063355
C	-2.915324	-3.218957	-1.065239
C	-4.845853	-2.298573	0.191282
H	-4.864537	-0.466366	-1.90496
H	-3.342637	-0.982715	-2.696235
H	-4.742515	-2.090175	-2.623417
H	-2.402414	-3.620008	-0.175883
H	-3.640025	-3.976889	-1.417986
H	-2.175594	-3.061796	-1.863567
H	-5.502243	-3.015038	-0.338011
H	-4.473792	-2.797239	1.101947
H	-5.461384	-1.439024	0.489418
C	3.520408	0.113515	-1.370882
C	3.388122	-0.671003	-2.695327
C	2.999793	1.542263	-1.634056
C	4.99461	0.190538	-0.936547
H	3.799425	-1.688703	-2.626197
H	2.333585	-0.741796	-3.006819
H	3.946565	-0.133815	-3.484463
H	3.05711	2.188087	-0.741228
H	3.626897	2.002539	-2.419693
H	1.959915	1.520092	-1.99422
H	5.555094	0.787624	-1.680267
H	5.115056	0.681028	0.045013
H	5.46557	-0.804221	-0.893844
C	3.12532	-2.284865	0.642877
C	2.108132	-2.958015	1.597545
C	3.475037	-3.256127	-0.50319
C	4.387953	-2.004438	1.487308
H	1.965609	-2.369728	2.516813
H	1.125075	-3.123643	1.140772
H	2.521531	-3.942688	1.885015
H	4.331727	-2.896431	-1.096778
H	3.761136	-4.230843	-0.066685
H	2.62073	-3.429196	-1.175946
H	4.75111	-2.969003	1.888255
H	5.209818	-1.5542	0.913838
H	4.163587	-1.360459	2.353819
C	0.004887	-2.557055	-0.785508
O	0.145524	-3.696228	-1.032137
Re	-0.073866	-0.638471	-0.531784
N	0.020247	1.433203	-0.413133
C	0.220126	4.006146	-0.161919
C	0.3541	4.54627	1.143397
C	0.193913	4.870218	-1.285361
C	0.459999	5.928767	1.310242
H	0.367279	3.872147	2.004766
C	0.299898	6.250267	-1.096864
H	0.088243	4.446657	-2.287989
C	0.433429	6.783302	0.19567
H	0.561485	6.344134	2.317952
H	0.277646	6.916553	-1.965113
H	0.515494	7.865989	0.334719
86

C     -1.044964      3.828270      1.865700
C      2.961332     -1.696215     -0.787191
H      0.817464     -1.024375     -4.150414
C     -2.503494     -2.495207     -1.238948
C     -3.742962     -2.585188     -0.319341
H      3.689891     -0.873105      1.060171
H     -3.747786     -1.560617     -2.738889
C     -2.302652     -3.804576     -2.026504
H     -1.118179     -5.135198      2.014745
H      1.469577     -3.949938     -0.403903
C      0.496625     -3.071156      1.999764
H      0.639021      4.277461      3.231253
H      6.067671     -1.597990      0.674495
H      1.630903      5.047147     -0.096627
C      2.332885      2.400939     -0.581897
H     -2.527074      2.352348      2.539336
H     -0.293135      2.808559      3.660470
H      3.433865      2.493563     -0.535754
C      0.123897     -0.380286     -2.203613
H      0.536280      1.259838     -5.169345
C     -2.771197     -1.364660     -2.258889
C      0.300782      1.087625     -4.114256
C     -0.335493     -3.542539      0.785910
C     -0.125172      2.151138     -3.302134
H      6.668375     -2.825904     -1.425289
H      4.892844     -3.323701     -3.115947
H     -4.635798     -2.750788     -0.950989
H     -1.657642      5.273295      0.322750
N      1.292360     -0.463800      0.496861
C      4.639400     -2.790071     -2.193326
C      3.978067     -1.416649      0.155165
H      2.168570      1.178741      1.837110
C     -0.419048      1.914416     -1.954449
H     -3.892939     -1.645584      0.234622
H      1.989799      2.937827     -1.482628
H     -2.177496     -3.703727      1.979382
H     -3.185121     -3.973109     -2.672008
C      5.634763     -2.510040     -1.247799
H     -0.210136      3.165173     -3.702316
C      0.402434     -1.646353     -1.454205
C      2.088062      4.497656      0.745252
H      2.556024     -2.614571     -2.720313
H     -2.133617     -4.832370      0.586154
H      0.848372     -3.971977      2.537080
H     -0.412493      3.994068     -1.374581
H     -3.684620     -3.413715      0.399601
H      2.006920      2.634982      2.882213
H     -0.984578      4.429072      3.947718
H     -1.416900     -3.751228     -2.683792
C      0.534828     -4.451505     -0.105862
H     -2.822961     -0.376882     -1.777142
C      1.741411      2.998529      0.713570
H      3.185214      4.603834      0.650707
H     -2.008905     -1.333213     -3.052699
C     -1.098978      5.252669      1.274116
P     -0.977102     -2.004497     -0.191725
C     -0.762829      3.021193     -0.989445
H      0.626690     -2.476734     -2.139538
H      1.368474     -2.467081      1.714968
C      5.295637     -1.820117     -0.070590
C      2.375558      2.260071      1.914797
O     -0.946942     -0.119014      3.761961
H      0.010006     -4.786590     -1.014870
H     -1.638527      5.908648      1.982666
H     -1.860364      3.080568     -0.858173
N     -0.337693      0.653989     -1.438460
H     -0.115638     -2.474680      2.692909
H      3.471120      2.414237      1.887280
C     -2.611092      0.674756      0.548897
H     -0.105993      5.691075      1.104249
O     -3.761685      0.859114      0.351993
H     -3.023502      4.066366      2.698432
C      1.578132     -1.232943     -0.485829
C      0.449999     -0.183175     -3.556189
C      3.315102     -2.389122     -1.965039
P     -0.128517      2.583372      0.735259
H      0.814602     -5.353038      0.470854
C     -2.494254      3.339237      2.054268
C     -0.367582      3.830741      3.252010
H     -2.198364     -4.685178     -1.373800
H     -3.045602      3.272429      1.102368
C     -0.876893     -0.012198      2.592556
H      1.791688      4.985285      1.687461
Re     -0.733814      0.245234      0.686907
H      2.090628      1.332430     -0.675926
C     -1.524180     -4.341767      1.360672
